!03SEP2015 Craig Needham
!Added H abstraction from yf by O2
!
!02SEP2015 Craig Needham
!Updated/added F abstraction reactions for:
!CH4 + F = CCH3 + HF
!C2H2 + F = C2H + HF
!C2H4 + F = C2H3 + HF
!C3H8 + F = C3H7 + HF (all isomers)
!C4H10 + F = C4H9 + HF (all isomers)
!
!Added E-CH2CFCF3 = Z-CH2CFCF3 conversion
!
!10AUG2015 Craig Needham
!Changed rate constants for HFO-1234yf reactions to cover a larger T range
!
!27JUL2015 Craig Needham
!Added temperature dependent rate expression for F+F+M reaction
!
!07MAY2015 Craig Needham
!Added decomposition routes for propyne-like CF3CCH species
!
!17MAR2015 Craig Needham
!Added low pressure parameters and tunneling corrections
!for radical combination reactions in 1234yf sub-mechanism
!
!23FEB2015 Craig Needham
!Removed all reactions involving BR and BTP from NIST sub-mechanism
!
!23DEC2014 Craig Needham
!Added HFO-1234yf reactions and species
!
ELEMENTS
O  H  C  N  AR F
END
SPECIES
!
AR  N2 
! HE
H         O         OH        HO2       H2        H2O       H2O2      O2
C         CH        CH2       CH2*      CH3       CH4   
HCO			! formyl					CAS #: 2597-44-6	InChI=1S/CHO/c1-2/h1H
CH2O		! formaldehyde				CAS #: 50-00-0		InChI=1S/CH2O/c1-2/h1H2
CH3O		! methoxy					CAS #: 2143-68-2	InChI=1S/CH3O/c1-2/h1H3
CH2OH		! hydroxymethyl 			CAS #: 2597-43-5	InChI=1S/CH3O/c1-2/h2H,1H2
CH3OH		! methanol					CAS #: 67-56-1		InChI=1S/CH4O/c1-2/h2H,1H3
CO			! carbon monoxide			CAS #: 630-08-0		InChI=1S/CO/c1-2
CO2			! carbon dioxide			CAS #: 124-38-9		InChI=1S/CO2/c2-1-3
C2H			! ethynyl					CAS #: 2122-48-7	InChI=1S/C2H/c1-2/h1H
C2H2		! acetylene					CAS #: 74-86-2		InChI=1S/C2H2/c1-2/h1-2H
C2H3		! vinyl						CAS #: 2669-89-8	InChI=1S/C2H3/c1-2/h1H,2H2
C2H4		! ethylene					CAS #: 74-85-1		InChI=1S/C2H4/c1-2/h1-2H2
C2H5		! ethyl						CAS #: 2025-56-1	InChI=1S/C2H5/c1-2/h1H2,2H3
C2H6		! ethane					CAS #: 74-84-0		InChI=1S/C2H6/c1-2/h1-2H3
HCCO		! ethynyloxy				CAS #: 51095-15-9	InChI=1S/C2HO/c1-2-3/h1H
HCCOH		! ethynol					CAS #: 32038-79-2	InChI=1S/C2H2O/c1-2-3/h1,3H
CH2CO		! ketene					CAS #: 463-51-4		InChI=1S/C2H2O/c1-2-3/h1H2
CH3CO		! acetyl					CAS #: 3170-69-2	InChI=1S/C2H3O/c1-2-3/h1H3
CH3CHO		! acetaldehyde				CAS #: 75-07-0		InChI=1S/C2H4O/c1-2-3/h2H,1H3
C3H3		! propargyl					CAS #: 2932-78-7	InChI=1S/C3H3/c1-3-2/h1H,2H2
pC3H4		! propyne					CAS #: 74-99-7		InChI=1S/C3H4/c1-3-2/h1H,2H3
aC3H4		! allene					CAS #: 463-49-0		InChI=1S/C3H4/c1-3-2/h1-2H2
cC3H4		! cyclopropene				CAS #: 2781-85-3	InChI=1S/C3H4/c1-2-3-1/h1-2H,3H2
aC3H5		! allyl						CAS #: 1981-80-2	InChI=1S/C3H5/c1-3-2/h3H,1-2H2
CH3CCH2		! 2-propenyl									InChI=1S/C3H5/c1-3-2/h1H3,2H2
C3H6		! propene					CAS #: 115-07-1		InChI=1S/C3H6/c1-3-2/h3H,1H2,2H3
nC3H7		! n-propyl					CAS #: 2143-61-5	InChI=1S/C3H7/c1-3-2/h1,3H2,2H3
iC3H7		! isopropyl					CAS #: 2025-55-0	InChI=1S/C3H7/c1-3-2/h3H,1-2H3
C3H8		! propane					CAS #: 74-98-6		InChI=1S/C3H8/c1-3-2/h3H2,1-2H3
C2H3CHO		! 2-propenal				CAS #: 107-02-8		InChI=1S/C3H4O/c1-2-3-4/h2-3H,1H2
C4H2		! 1,3-butadiyne				CAS #: 460-12-8		InChI=1S/C4H2/c1-3-4-2/h1-2H
C4H4		! 1-buten-3-yne				CAS #: 689-97-4		InChI=1S/C4H4/c1-3-4-2/h1,4H,2H2
C4H6		! 1,3-butadiene				CAS #: 106-99-0		InChI=1S/C4H6/c1-3-4-2/h3-4H,1-2H2
C4H612		! 1,2-butadiene				CAS #: 590-19-2		InChI=1S/C4H6/c1-3-4-2/h4H,1H2,2H3
C4H7		! but-3-en-1-yl				CAS #: 2154-62-3	InChI=1S/C4H7/c1-3-4-2/h3H,1-2,4H2
C4H81		! 1-butene					CAS #: 106-98-9		InChI=1S/C4H8/c1-3-4-2/h3H,1,4H2,2H3
H2C4O		! butatrieneone									InChI=1S/C4H2O/c1-2-3-4-5/h1H2
C5H4O		! cyclopentadienone			CAS #: 13177-38-3	InChI=1S/C5H4O/c6-5-3-1-2-4-5/h1-4H
C5H4OH		! 1-hydroxycyclopentadienyl						InChI=1S/C5H5O/c5-6-3-1-2-4-6/h1-5H
C5H5		! cyclopentadienyl			CAS #: 2143-53-5	InChI=1S/C5H5/c1-2-4-5-3-1/h1-5H
C5H6		! cyclopentadiene			CAS #: 542-92-7		InChI=1S/C5H6/c1-2-4-5-3-1/h1-4H,5H2
C6H2		! 1,3,5-hexatriyne			CAS #: 3161-99-7	InChI=1S/C6H2/c1-3-5-6-4-2/h1-2H
C6H3	!???? 
l-C6H4		! hex-3-en-1,5-diyne		CAS #: 6929-94-8	InChI=1S/C6H4/c1-3-5-6-4-2/h1-2,5-6H
C6H5O		! phenoxy					CAS #: 2122-46-5	InChI=1S/C6H5O/c7-6-4-2-1-3-5-6/h1-5H
C6H5OH		! phenol					CAS #: 108-95-2		InChI=1S/C6H6O/c7-6-4-2-1-3-5-6/h1-5,7H
!gle6b species added one at a time
C2O			! dicarbon monoxide			CAS #: 119754-08-4	InChI=1S/C2O/c1-2-3
! now add C3 species
CH3CHCH	!???? isn't this just allyl?
CH2CHCO		! 1-oxoprop-2-enyl			CAS #: 72241-20-4	InChI=1S/C3H3O/c1-2-3-4/h2H,1H2
CH3CHOCH2	! epoxypropane				CAS #: 75-56-9		InChI=1S/C3H6O/c1-3-2-4-3/h3H,2H2,1H3
CH3CH2CHO	! propanal					CAS #: 123-38-6		InChI=1S/C3H6O/c1-2-3-4/h3H,2H2,1H3
CH3COCH3	! acetone					CAS #: 67-64-1		InChI=1S/C3H6O/c1-3(2)4/h1-2H3
! add C2 species
CH2CHO		! 2-oxoethyl				CAS #: 4400-01-5	InChI=1S/C2H3O/c1-2-3/h2H,1H2
CH2OCH		! oxiranyl					CAS #: 31586-84-2	InChI=1S/C2H3O/c1-2-3-1/h1H,2H2
CH2OCH2		! oxirane					CAS #: 75-21-8		InChI=1S/C2H4O/c1-2-3-1/h1-2H2
H2CC		! ethenylidene				CAS #: 2143-69-3	InChI=1S/C2H2/c1-2/h1H2
! added
tC4H9		! tert-butyl				CAS #: 1605-73-8	InChI=1S/C4H9/c1-4(2)3/h1-3H3
iC4H5		! but-1-yn-3-yl				CAS #: 3315-42-2	InChI=1S/C4H5/c1-3-4-2/h1,4H,2H3
c-C4H5		! methylenecyclopropyl							InChI=1S/C4H5/c1-4-2-3-4/h2H,1,3H2
C4H6O23 	! 2,3-dihydrofuran			CAS #: 1191-99-7	InChI=1S/C4H6O/c1-2-4-5-3-1/h1,3H,2,4H2
nC4H3	!???? butatrienyl?
iC4H3	!???? cyclobutadienyl?
! added
iC4H8		! isobutene					CAS #: 115-11-7		InChI=1S/C4H8/c1-4(2)3/h1H2,2-3H3
iC4H10		! isobutane					CAS #: 75-28-5		InChI=1S/C4H10/c1-4(2)3/h4H,1-3H3
nC4H5		! but-2-yn-1-yl				CAS #: 82252-88-8	InChI=1S/C4H5/c1-3-4-2/h1H2,2H3
C4H5-2	!???? same as but-2-yn-1-yl?
C5H5O(1,3)	! 1,3-cyclopentadienoxy		 					InChI=1S/C5H5O/c6-5-3-1-2-4-5/h1-3H,4H2
C2H3CHOCH2  ! 3-oxyl-1-buten-4-yl? 							InChI=1S/C4H6O/c1-3-4(2)5/h3-4H,1-2H2
CH3CHCHCHO	! 2-butenal					CAS #: 4170-30-3	InChI=1S/C4H6O/c1-2-3-4-5/h2-4H,1H3
!added 
iC4H7		! 2-methylallyl				CAS #: 15157-95-6	InChI=1S/C4H7/c1-4(2)3/h1-2H2,3H3
iC4H9		! isobutyl					CAS #: 4630-45-9	InChI=1S/C4H9/c1-4(2)3/h4H,1H2,2-3H3
CH2CHCHCHO	! 2-butenal-1-yl								InChI=1S/C4H5O/c1-2-3-4-5/h2-4H,1H2
C4H6-2		! 2-butyne					CAS #: 503-17-3		InChI=1S/C4H6/c1-3-4-2/h1-2H3
CH3CHCHCO	! 2-butenal-4-yl								InChI=1S/C4H5O/c1-2-3-4-5/h2-3H,1H3
! added
o-C6H4		! benzyne					CAS #: 462-80-6		InChI=1S/C6H4/c1-2-4-6-5-3-1/h1-4H
C4H82		! 2-butene					CAS #: 107-01-7		InChI=1S/C4H8/c1-3-4-2/h3-4H,1-2H3
pC4H9		! 1-butyl					CAS #: 2492-36-6	InChI=1S/C4H9/c1-3-4-2/h1,3-4H2,2H3
sC4H9		! 2-butyl					CAS #: 2348-55-2	InChI=1S/C4H9/c1-3-4-2/h3H,4H2,1-2H3
C4H4O		! furan						CAS #: 110-00-9		InChI=1S/C4H4O/c1-2-4-5-3-1/h1-4H
!
C4H10		! butane					CAS #: 106-97-8		InChI=1S/C4H10/c1-3-4-2/h3-4H2,1-2H3
! add some rection involving those --->96th species!
C6H6		! benzene					CAS #: 71-43-2		InChI=1S/C6H6/c1-2-4-6-5-3-1/h1-6H
! hkc3w add following 7 species--->103 species
C6H5		! phenyl					CAS #: 2396-01-2	InChI=1S/C6H5/c1-2-4-6-5-3-1/h1-5H
C6H5CH3		! toluene					CAS #: 108-88-3		InChI=1S/C7H8/c1-7-5-3-2-4-6-7/h2-6H,1H3
C6H5CH2		! benzyl					CAS #: 2154-56-5	InChI=1S/C7H7/c1-7-5-3-2-4-6-7/h2-6H,1H2
C6H5CH2OH	! benzyl alcohol			CAS #: 100-51-6		InChI=1S/C7H8O/c8-6-7-4-2-1-3-5-7/h1-5,8H,6H2
C6H5CHO		! benzaldehyde				CAS #: 100-52-7		InChI=1S/C7H6O/c8-6-7-4-2-1-3-5-7/h1-6H
C6H5CO		! benzaldehyde radical							InChI=1S/C7H6O/c8-6-7-4-2-1-3-5-7/h1-5H
C6H4O2		! p-benzoquinone			CAS #: 106-51-4		InChI=1S/C6H4O2/c7-5-1-2-6(8)4-3-5/h1-4H
! last species to add ---> 104 species
C4H6O25		! 2,5-dihydrofuran			CAS #: 1708-29-8	InChI=1S/C4H6O/c1-2-4-5-3-1/h1-2H,3-4H2
! last 7 species to add ---> 111 species
C5H5O(2,4)	! 2,4-cyclopentadienoxy							InChI=1S/C5H5O/c6-5-3-1-2-4-5/h1-5H
C5H5OH		! 2,4-cyclopentadienol		CAS #: 80156-16-7	InChI=1S/C5H6O/c6-5-3-1-2-4-5/h1-6H
lC5H7		! 1,4-pentadien-3-yl		CAS #: 14362-08-4	InChI=1S/C5H7/c1-3-5-4-2/h3-5H,1-2H2
C6H5C2H		! phenylacetylene			CAS #: 536-74-3		InChI=1S/C8H6/c1-2-8-6-4-3-5-7-8/h1,3-7H
OC6H4CH3	! p-methylphenoxy			CAS #: 3174-48-9	InChI=1S/C7H7O/c1-6-2-4-7(8)5-3-6/h2-5H,1H3
HOC6H4CH3	! p-cresol					CAS #: 106-44-5		InChI=1S/C7H8O/c1-6-2-4-7(8)5-3-6/h2-5,8H,1H3
C6H4CH3		! 4-methylphenyl			CAS #: 2396-02-3	InChI=1S/C7H7/c1-7-5-3-2-4-6-7/h3-6H,1H3

! ethanol species added by hkc
C2H5OH		! ethanol					CAS #: 64-17-5		InChI=1S/C2H6O/c1-2-3/h3H,2H2,1H3
CH3CHOH		! 1-hydroxyethyl			CAS #: 2348-46-1	InChI=1S/C2H5O/c1-2-3/h2-3H,1H3
C2H4OH		! 2-hydroxyethyl			CAS #: 4422-54-2	InChI=1S/C2H5O/c1-2-3/h3H,1-2H2
CH3CH2O		! ethyloxidanyl				CAS #: 2154-50-9	InChI=1S/C2H5O/c1-2-3/h2H2,1H3
HOC2H4O2	!(2-hydroxyethyl)dioxidanyl CAS #: 40135-01-1	InChI=1S/C2H5O3/c3-1-2-5-4/h3H,1-2H2


!CH3CH2* CH3CH2CH2* CH3CH*CH3 *CH2CH2OH CH3CH*OH CH3CH2O*

!********************************
!*** Hydrogen/Oxygen/Fluorine ***
!********************************
HF        F         F2

!************************
!*** C1 Fluorocarbons ***
!************************
CH3F      CH2F2     CHF3      CF4 CH2F      CHF2      CF3
                    CHF       CF2 CF

!*********************************
!*** Oxidized C1 Fluorocarbons ***
!*********************************
CF3O CF2:O CHF:O CF:O

!*********************
!*** Fluoroethanes ***
!*********************
CH3-CH2F  CH3-CHF2  CH3-CF3
CH2F-CH2F CH2F-CHF2 CH2F-CF3
          CHF2-CHF2 CHF2-CF3
                    CF3-CF3

!*********************
!***  Fluoroethyls ***
!*********************
          CH3-CHF   CH3-CF2
CH2F-CH2  CH2F-CHF  CH2F-CF2
CHF2-CH2  CHF2-CHF  CHF2-CF2
CF3-CH2   CF3-CHF   CF3-CF2

!**********************
!***  Fluoroethenes ***
!**********************
CH2:CHF    CH2:CF2
CHF:CHF[Z] CHF:CF2
CF2:CF2

!*********************
!***  Fluorovinyls ***
!*********************
          CH2:CF
CHF:CH[Z] CHF:CF[Z]
CF2:CH    CF2:CF

!**********************
!***  Fluoroethynes ***
!**********************
C2HF      C2F2

!*********************
!*** Fluoroketenes ***
!*********************
CHFCO		! 2-fluoroethenone			CAS #: 37580-39-5	InChI=1S/C2HFO/c3-1-2-4/h1H
CF2CO		! difluoroethenone			CAS #: 683-54-5		InChI=1S/C2F2O/c3-2(4)1-5
CFCO		! fluoro-2-oxoethenyl							InChI=1S/C2FO/c3-1-2-4

CF3COF		! trifluoroacetyl fluoride	CAS #: 354-34-7		InChI=1S/C2F4O/c3-1(7)2(4,5)6
CF3CO		! trifluoroacetyl			CAS #: 6185-26-8	InChI=1S/C2F3O/c3-2(4,5)1-6
CF3CHO		! trifluoroacetaldehyde		CAS #: 75-90-1		InChI=1S/C2HF3O/c3-2(4,5)1-6/h1H

CF3CHCH2	! 3,3,3-trifluoropropene	CAS #: 677-21-4		InChI=1S/C3H3F3/c1-2-3(4,5)6/h2H,1H2
CF3CCH2		! 3,3,3-trifluoropropenyl						InChI=1S/C3H3F3/c1-2-3(4,5)6/h1H2
CF3CCH		! 3,3,3-triflouropropyne	CAS #: 661-54-1		InChI=1S/C3HF3/c1-2-3(4,5)6/h1H
CF3COCH3	! trifluoroacetone			CAS #: 421-50-1		InChI=1S/C3H3F3O/c1-2(7)3(4,5)6/h1H3

! 
!**************************
!*** HFO-1234yf Species ***
!**************************
CH2CFCF3	! 2,3,3,3-tetrafluoropropene	CAS #: 754-12-1	InChI=1S/C3H2F4/c1-2(4)3(5,6)7/h1H2
Z-CHCFCF3	! (Z)-2,3,3,3-tetrafluoropropenyl				InChI=1S/C3HF4/c1-2(4)3(5,6)7/h1H
E-CHCFCF3	! (E)-2,3,3,3-tetrafluoropropenyl				InChI=1S/C3HF4/c1-2(4)3(5,6)7/h1H
CH3CFCF3	! 1,1,1,2-tetrafluoropropan-2-yl				InChI=1S/C3H3F4/c1-2(4)3(5,6)7/h1H3
CH2CHFCF3	! 2,3,3,3-tetrafluoropropyl						InChI=1S/C3H3F4/c1-2(4)3(5,6)7/h2H,1H2
CH2OCFCF3	! 1-oxy-2,3,3,3-tetrafluoropropan-2-yl			InChI=1S/C3H2F4O/c4-2(1-8)3(5,6)7/h1H2
CH2COFCF3	! 2-oxy-2,3,3,3-tetraflouropropyl				InChI=1S/C3H2F4O/c1-2(4,8)3(5,6)7/h1H2
CHOCFCF3	! (2,3,3,3-tetrafluoropropenyl)oxidanyl			InChI=1S/C3HF4O/c4-2(1-8)3(5,6)7/h1H
CH2COF		! (fluoroethenyl)oxidanyl						InChI=1S/C2H2FO/c1-2(3)4/h1H2
CF3CFCO		! 2,3,3,3-tetrafluoropropenone					InChI=1S/C3F4O/c4-2(1-8)3(5,6)7
CH3COFCF3	! (1,1,1,2-tetrafluoropropan-2-yl)oxidanyl		InChI=1S/C3H3F4O/c1-2(4,8)3(5,6)7/h1H3
CH3COF		! acetyl fluoride			CAS #: 557-99-3		InChI=1S/C2H3FO/c1-2(3)4/h1H3
CH2OHCFCF3	! 
CH2COHFCF3	! 2,3,3,3-tetrafluoro-2-hydroxypropyl			InChI=1S/C3H3F4O/c1-2(4,8)3(5,6)7/h8H,1H2
CH2OCHFCF3	! 1,1,1,2-tetrafluoro-3-hydroxypropan-2-yl		InChI=1S/C3H3F4O/c4-2(1-8)3(5,6)7/h8H,1H2
CHOHCHFCF3	! 2,3,3,3-tetrafluorohydroxypropyl				InChI=1S/C3H3F4O/c4-2(1-8)3(5,6)7/h1-2,8H
CHFCHOH		! 2-fluoroethenol			CAS #: 67285-38-5	InChI=1S/C2H3FO/c3-1-2-4/h1-2,4H/b2-1+
CF3CF

END

THERMO ALL
   298.000  1000.000  5000.000
N2                121286N   2               G  0300.00   5000.00  1000.00      1
 0.02926640E+02 0.14879768E-02-0.05684760E-05 0.10097038E-09-0.06753351E-13    2
-0.09227977E+04 0.05980528E+02 0.03298677E+02 0.14082404E-02-0.03963222E-04    3
 0.05641515E-07-0.02444854E-10-0.10208999E+04 0.03950372E+02                   4
AR                120186AR  1               G  0300.00   5000.00  1000.00      1
 0.02500000E+02 0.00000000E+00 0.00000000E+00 0.00000000E+00 0.00000000E+00    2
-0.07453750E+04 0.04366000E+02 0.02500000E+02 0.00000000E+00 0.00000000E+00    3
 0.00000000E+00 0.00000000E+00-0.07453750E+04 0.04366000E+02                   4
HE                L10/90HE  1    0    0    0G   200.000  6000.000 1000.        1
 2.50000000E+00 0.00000000E+00 0.00000000E+00 0.00000000E+00 0.00000000E+00    2
-7.45375000E+02 9.28723974E-01 2.50000000E+00 0.00000000E+00 0.00000000E+00    3
 0.00000000E+00 0.00000000E+00-7.45375000E+02 9.28723974E-01 0.00000000E+00    4
NE                L10/92NE  1    0    0    0G   200.000  6000.000   1000.00    1
 0.25000000E+01 0.             0.             0.             0.                2
-0.74537500E+03 0.33553227E+01 0.25000000E+01 0.             0.                3
 0.             0.            -0.74537498E+03 0.33553227E+01 0.00000000E+00    4
C(S)              P 4/83C   1    0    0    0C   200.000  5000.000     12.01100 1
 0.14556924e+01 0.17170638e-02-0.69758410e-06 0.13528316e-09-0.96764905e-14    2
-0.69512804e+03-0.85256842e+01-0.31087207e+00 0.44035369e-02 0.19039412e-05    3
-0.63854697e-08 0.29896425e-11-0.10865079e+03 0.11138295e+01                   4
O                 L 1/90O   1   00   00   00G   200.000  3500.000  1000.000    1
 2.56942078E+00-8.59741137E-05 4.19484589E-08-1.00177799E-11 1.22833691E-15    2
 2.92175791E+04 4.78433864E+00 3.16826710E+00-3.27931884E-03 6.64306396E-06    3
-6.12806624E-09 2.11265971E-12 2.91222592E+04 2.05193346E+00 6.72540300E+03    4
O2                TPIS89O   2   00   00   00G   200.000  3500.000  1000.000    1
 3.28253784E+00 1.48308754E-03-7.57966669E-07 2.09470555E-10-2.16717794E-14    2
-1.08845772E+03 5.45323129E+00 3.78245636E+00-2.99673416E-03 9.84730201E-06    3
-9.68129509E-09 3.24372837E-12-1.06394356E+03 3.65767573E+00 8.68010400E+03    4
H                 L 7/88H   1   00   00   00G   200.000  3500.000   1000.00    1
 2.50000001E+00-2.30842973E-11 1.61561948E-14-4.73515235E-18 4.98197357E-22    2
 2.54736599E+04-4.46682914E-01 2.50000000E+00 7.05332819E-13-1.99591964E-15    3
 2.30081632E-18-9.27732332E-22 2.54736599E+04-4.46682853E-01 6.19742800E+03    4
H2                TPIS78H   2   00   00   00G   200.000  3500.000   1000.00    1
 3.33727920E+00-4.94024731E-05 4.99456778E-07-1.79566394E-10 2.00255376E-14    2
-9.50158922E+02-3.20502331E+00 2.34433112E+00 7.98052075E-03-1.94781510E-05    3
 2.01572094E-08-7.37611761E-12-9.17935173E+02 6.83010238E-01 8.46810200E+03    4
OH                S 9/01O   1H   1    0    0G   200.000  6000.000   1000.00    1
 2.86472886E+00 1.05650448E-03-2.59082758E-07 3.05218674E-11-1.33195876E-15    2
 3.71885774E+03 5.70164073E+00 4.12530561E+00-3.22544939E-03 6.52764691E-06    3
-5.79853643E-09 2.06237379E-12 3.38153812E+03-6.90432960E-01 4.51532273E+03    4
OH"OLD"           RUS 78O   1H   1   00   00G   200.000  3500.000  1000.000    1
 3.09288767E+00 5.48429716E-04 1.26505228E-07-8.79461556E-11 1.17412376E-14    2
 3.85865700E+03 4.47669610E+00 3.99201543E+00-2.40131752E-03 4.61793841E-06    3
-3.88113333E-09 1.36411470E-12 3.61508056E+03-1.03925458E-01 8.81310600E+03    4
H2O               L 8/89H   2O   1   00   00G   200.000  3500.000  1000.000    1
 3.03399249E+00 2.17691804E-03-1.64072518E-07-9.70419870E-11 1.68200992E-14    2
-3.00042971E+04 4.96677010E+00 4.19864056E+00-2.03643410E-03 6.52040211E-06    3
-5.48797062E-09 1.77197817E-12-3.02937267E+04-8.49032208E-01 9.90409200E+03    4
HO2               L 5/89H   1O   2   00   00G   200.000  3500.000  1000.000    1
 4.01721090E+00 2.23982013E-03-6.33658150E-07 1.14246370E-10-1.07908535E-14    2
 1.11856713E+02 3.78510215E+00 4.30179801E+00-4.74912051E-03 2.11582891E-05    3
-2.42763894E-08 9.29225124E-12 2.94808040E+02 3.71666245E+00 1.00021620E+04    4
H2O2              L 7/88H   2O   2   00   00G   200.000  3500.000  1000.000    1
 4.16500285E+00 4.90831694E-03-1.90139225E-06 3.71185986E-10-2.87908305E-14    2
-1.78617877E+04 2.91615662E+00 4.27611269E+00-5.42822417E-04 1.67335701E-05    3
-2.15770813E-08 8.62454363E-12-1.77025821E+04 3.43505074E+00 1.11588350E+04    4
C                 L11/88C   1   00   00   00G   200.000  3500.000  1000.000    1
 2.49266888E+00 4.79889284E-05-7.24335020E-08 3.74291029E-11-4.87277893E-15    2
 8.54512953E+04 4.80150373E+00 2.55423955E+00-3.21537724E-04 7.33792245E-07    3
-7.32234889E-10 2.66521446E-13 8.54438832E+04 4.53130848E+00 6.53589500E+03    4
CH                TPIS79C   1H   1   00   00G   200.000  3500.000  1000.000    1
 2.87846473E+00 9.70913681E-04 1.44445655E-07-1.30687849E-10 1.76079383E-14    2
 7.10124364E+04 5.48497999E+00 3.48981665E+00 3.23835541E-04-1.68899065E-06    3
 3.16217327E-09-1.40609067E-12 7.07972934E+04 2.08401108E+00 8.62500000E+03    4
CH2               L S/93C   1H   2   00   00G   200.000  3500.000  1000.000    1
 2.87410113E+00 3.65639292E-03-1.40894597E-06 2.60179549E-10-1.87727567E-14    2
 4.62636040E+04 6.17119324E+00 3.76267867E+00 9.68872143E-04 2.79489841E-06    3
-3.85091153E-09 1.68741719E-12 4.60040401E+04 1.56253185E+00 1.00274170E+04    4
CH2*              L S/93C   1H   2   00   00G   200.000  3500.000  1000.000    1
 2.29203842E+00 4.65588637E-03-2.01191947E-06 4.17906000E-10-3.39716365E-14    2
 5.09259997E+04 8.62650169E+00 4.19860411E+00-2.36661419E-03 8.23296220E-06    3
-6.68815981E-09 1.94314737E-12 5.04968163E+04-7.69118967E-01 9.93967200E+03    4
CH3               L11/89C   1H   3   00   00G   200.000  3500.000  1000.000    1
 2.28571772E+00 7.23990037E-03-2.98714348E-06 5.95684644E-10-4.67154394E-14    2
 1.67755843E+04 8.48007179E+00 3.67359040E+00 2.01095175E-03 5.73021856E-06    3
-6.87117425E-09 2.54385734E-12 1.64449988E+04 1.60456433E+00 1.03663400E+04    4
CH4               L 8/88C   1H   4   00   00G   200.000  3500.000  1000.000    1
 7.48514950E-02 1.33909467E-02-5.73285809E-06 1.22292535E-09-1.01815230E-13    2
-9.46834459E+03 1.84373180E+01 5.14987613E+00-1.36709788E-02 4.91800599E-05    3
-4.84743026E-08 1.66693956E-11-1.02466476E+04-4.64130376E+00 1.00161980E+04    4
CO                TPIS79C   1O   1   00   00G   200.000  3500.000  1000.000    1
 2.71518561E+00 2.06252743E-03-9.98825771E-07 2.30053008E-10-2.03647716E-14    2
-1.41518724E+04 7.81868772E+00 3.57953347E+00-6.10353680E-04 1.01681433E-06    3
 9.07005884E-10-9.04424499E-13-1.43440860E+04 3.50840928E+00 8.67100000E+03    4
CO2               L 7/88C   1O   2   00   00G   200.000  3500.000  1000.000    1
 3.85746029E+00 4.41437026E-03-2.21481404E-06 5.23490188E-10-4.72084164E-14    2
-4.87591660E+04 2.27163806E+00 2.35677352E+00 8.98459677E-03-7.12356269E-06    3
 2.45919022E-09-1.43699548E-13-4.83719697E+04 9.90105222E+00 9.36546900E+03    4
HCO               L12/89H   1C   1O   1   00G   200.000  3500.000  1000.000    1
 2.77217438E+00 4.95695526E-03-2.48445613E-06 5.89161778E-10-5.33508711E-14    2
 4.01191815E+03 9.79834492E+00 4.22118584E+00-3.24392532E-03 1.37799446E-05    3
-1.33144093E-08 4.33768865E-12 3.83956496E+03 3.39437243E+00 9.98945000E+03    4
CH2O              L 8/88H   2C   1O   1   00G   200.000  3500.000  1000.000    1
 1.76069008E+00 9.20000082E-03-4.42258813E-06 1.00641212E-09-8.83855640E-14    2
-1.39958323E+04 1.36563230E+01 4.79372315E+00-9.90833369E-03 3.73220008E-05    3
-3.79285261E-08 1.31772652E-11-1.43089567E+04 6.02812900E-01 1.00197170E+04    4
CH2OH"OLD"        GUNL93C   1H   3O   1   00G   200.000  3500.000 1000.0       1
 3.69266569E+00 8.64576797E-03-3.75101120E-06 7.87234636E-10-6.48554201E-14    2
-3.24250627E+03 5.81043215E+00 3.86388918E+00 5.59672304E-03 5.93271791E-06    3
-1.04532012E-08 4.36967278E-12-3.19391367E+03 5.47302243E+00 1.18339080E+04    4
CH2OH             IU2/03C   1H   3O   1   00G   200.000  6000.00               1
 5.09314370E+00 5.94761260E-03-2.06497460E-06 3.23008173E-10-1.88125902E-14    2
-4.03409640E+03-1.84691493E+00 4.47834367E+00-1.35070310E-03 2.78484980E-05    3
-3.64869060E-08 1.47907450E-11-3.50072890E+03 3.30913500E+00-2.04462770E+03    4
CH3O"OLD"         121686C   1H   3O   1     G  0300.00   3000.00  1000.00      1
 0.03770799E+02 0.07871497E-01-0.02656384E-04 0.03944431E-08-0.02112616E-12    2
 0.12783252E+03 0.02929575E+02 0.02106204E+02 0.07216595E-01 0.05338472E-04    3
-0.07377636E-07 0.02075610E-10 0.09786011E+04 0.13152177E+02                   4
CH3O              IU1/03C   1H   3O   1     G   200.000  6000.00               1
 4.75779238E+00 7.44142474E-03-2.69705176E-06 4.38090504E-10-2.63537098E-14    2
 3.78111940E+02-1.96680028E+00 3.71180502E+00-2.80463306E-03 3.76550971E-05    3
-4.73072089E-08 1.86588420E-11 1.29569760E+03 6.57240864E+00 2.52571660E+03    4
CH3OH             L 8/88C   1H   4O   1   00G   200.000  3500.000  1000.000    1
 1.78970791E+00 1.40938292E-02-6.36500835E-06 1.38171085E-09-1.17060220E-13    2
-2.53748747E+04 1.45023623E+01 5.71539582E+00-1.52309129E-02 6.52441155E-05    3
-7.10806889E-08 2.61352698E-11-2.56427656E+04-1.50409823E+00 1.14352770E+04    4
C2H               L 1/91C   2H   1   00   00G   200.000  3500.000  1000.000    1
 3.16780652E+00 4.75221902E-03-1.83787077E-06 3.04190252E-10-1.77232770E-14    2
 6.71210650E+04 6.63589475E+00 2.88965733E+00 1.34099611E-02-2.84769501E-05    3
 2.94791045E-08-1.09331511E-11 6.68393932E+04 6.22296438E+00 1.04544720E+04    4
C2H2              L 1/91C   2H   2   00   00G   200.000  3500.000  1000.000    1
 4.14756964E+00 5.96166664E-03-2.37294852E-06 4.67412171E-10-3.61235213E-14    2
 2.59359992E+04-1.23028121E+00 8.08681094E-01 2.33615629E-02-3.55171815E-05    3
 2.80152437E-08-8.50072974E-12 2.64289807E+04 1.39397051E+01 1.00058390E+04    4
H2CC              L12/89H   2C   2    0    0G   200.000  6000.000  1000.000    1
 0.42780340E+01 0.47562804E-02-0.16301009E-05 0.25462806E-09-0.14886379E-13    2
 0.48316688E+05 0.64023701E+00 0.32815483E+01 0.69764791E-02-0.23855244E-05    3
-0.12104432E-08 0.98189545E-12 0.48621794E+05 0.59203910E+01 0.49887266E+05    4
C2H3              L 2/92C   2H   3   00   00G   200.000  3500.000  1000.000    1
 3.01672400E+00 1.03302292E-02-4.68082349E-06 1.01763288E-09-8.62607041E-14    2
 3.46128739E+04 7.78732378E+00 3.21246645E+00 1.51479162E-03 2.59209412E-05    3
-3.57657847E-08 1.47150873E-11 3.48598468E+04 8.51054025E+00 1.05750490E+04    4
C2H4              L 1/91C   2H   4   00   00G   200.000  3500.000  1000.000    1
 2.03611116E+00 1.46454151E-02-6.71077915E-06 1.47222923E-09-1.25706061E-13    2
 4.93988614E+03 1.03053693E+01 3.95920148E+00-7.57052247E-03 5.70990292E-05    3
-6.91588753E-08 2.69884373E-11 5.08977593E+03 4.09733096E+00 1.05186890E+04    4
C2H5              L12/92C   2H   5   00   00G   200.000  3500.000  1000.000    1
 1.95465642E+00 1.73972722E-02-7.98206668E-06 1.75217689E-09-1.49641576E-13    2
 1.28575200E+04 1.34624343E+01 4.30646568E+00-4.18658892E-03 4.97142807E-05    3
-5.99126606E-08 2.30509004E-11 1.28416265E+04 4.70720924E+00 1.21852440E+04    4
C2H6              L 8/88C   2H   6   00   00G   200.000  3500.000  1000.000    1
 1.07188150E+00 2.16852677E-02-1.00256067E-05 2.21412001E-09-1.90002890E-13    2
-1.14263932E+04 1.51156107E+01 4.29142492E+00-5.50154270E-03 5.99438288E-05    3
-7.08466285E-08 2.68685771E-11-1.15222055E+04 2.66682316E+00 1.18915940E+04    4
CH2CO"OLD"        L 5/90C   2H   2O   1   00G   200.000  3500.000  1000.000    1
 4.51129732E+00 9.00359745E-03-4.16939635E-06 9.23345882E-10-7.94838201E-14    2
-7.55105311E+03 6.32247205E-01 2.13583630E+00 1.81188721E-02-1.73947474E-05    3
 9.34397568E-09-2.01457615E-12-7.04291804E+03 1.22156480E+01 1.17977430E+04    4
CH2CO             D05/90C   2H   2O   1   00G   200.000  3500.000  1000.000    1
 4.51129732E+00 9.00359745E-03-4.16939635E-06 9.23345882E-10-7.94838201E-14    2
-7.77850000E+03 6.32247205E-01 2.13583630E+00 1.81188721E-02-1.73947474E-05    3
 9.34397568E-09-2.01457615E-12-7.27000000E+03 1.22156480E+01 1.17977430E+04    4
CH2CHO"OLD"       T04/83O   1H   3C   2    0G   300.000  5000.000              1
 0.59756699E+01 0.81305914E-02-0.27436245E-05 0.40703041E-09-0.21760171E-13    2
 0.49032178E+03-0.50320879E+01 0.34090624E+01 0.10738574E-01 0.18914925E-05    3
-0.71585831E-08 0.28673851E-11 0.15214766E+04 0.95714535E+01 0.30474436E+04    4
CH2CHO            D05/83O   1H   3C   2    0G   300.000  5000.000              1
 0.59756699E+01 0.81305914E-02-0.27436245E-05 0.40703041E-09-0.21760171E-13    2
-0.96950000E+03-0.50320879E+01 0.34090624E+01 0.10738574E-01 0.18914925E-05    3
-0.71585831E-08 0.28673851E-11 0.62000000E+02 0.95714535E+01 0.30474436E+04    4
CH2OCH"OLD"       T 9/92C   2H   3O   1    0G   298.150  3000.000  1000.0      1
 0.48131470E+00 0.20711914E-01-0.12693155E-04 0.34579642E-08-0.35399703E-12    2
 0.15648642E+05 0.34629876E+02 0.10854772E+01 0.12845259E-01 0.24138660E-05    3
-0.44642672E-08-0.29381916E-12 0.15910655E+05 0.33395312E+02 0.16817588E+05    4
CH2OCH            A12/04C   2H   3O   1    0G   298.150  3000.000   500.0      1
 0.44994054E+01 0.11552625E-01-0.48144129E-05 0.89234919E-09-0.56870585E-13    2
 0.17473963E+05 0.33925515E+00-0.38396084E+00 0.23879038E-01-0.12467587E-04    3
-0.17686411E-08 0.28142438E-11 0.18836203E+05 0.25741745E+02                   4
CH2OCH2           T 6/92C   2H   4O   1    0G   298.150  3000.0    1000.0      1
 0.54887641E+01 0.12046190E-01-0.43336931E-05 0.70028311E-09-0.41949088E-13    2
-0.91804251E+04-0.70799605E+01 0.37590532E+01-0.94412180E-02 0.80309721E-04    3
-0.10080788E-06 0.40039921E-10-0.75608143E+04 0.78497475E+01-0.63304657E+04    4
CH3CO             T 9/92C   2H   3O   1    0G   200.000  6000.0    1000.0      1
 0.59447731E+01 0.78667205E-02-0.28865882E-05 0.47270875E-09-0.28599861E-13    2
-0.37873075E+04-0.50136751E+01 0.41634257E+01-0.23261610E-03 0.34267820E-04    3
-0.44105227E-07 0.17275612E-10-0.26574529E+04 0.73468280E+01-0.12027167E+04    4
CH3CHO            L 8/88C   2H   4O   1    0G   200.000  6000.0    1000.0      1
 0.54041108E+01 0.11723059E-01-0.42263137E-05 0.68372451E-09-0.40984863E-13    2
-0.22593122E+05-0.34807917E+01 0.47294595E+01-0.31932858E-02 0.47534921E-04    3
-0.57458611E-07 0.21931112E-10-0.21572878E+05 0.41030159E+01-0.19987949E+05    4
HCCO              SRIC91H   1C   2O   1     G  0300.00   4000.00  1000.00      1
 0.56282058E+01 0.40853401E-02-0.15934547E-05 0.28626052E-09-0.19407832E-13    2
 0.19327215E+05-0.39302595E+01 0.22517214E+01 0.17655021E-01-0.23729101E-04    3
 0.17275759E-07-0.50664811E-11 0.20059449E+05 0.12490417E+02                   4
HCCOH              SRI91C   2O   1H   20   0G   300.000  5000.000   1000.G     1
 0.59238291E+01 0.67923600E-02-0.25658564E-05 0.44987841E-09-0.29940101E-13    2
 0.72646260E+04-0.76017742E+01 0.12423733E+01 0.31072201E-01-0.50866864E-04    3
 0.43137131E-07-0.14014594E-10 0.80316143E+04 0.13874319E+02                   4
C2O               RUS 79C   2O   1    0    0G   200.000  6000.000              1
 0.51512722E+01 0.23726722E-02-0.76135971E-06 0.11706415E-09-0.70257804E-14    2
 0.33241888E+05-0.22183135E+01 0.28648610E+01 0.11990216E-01-0.18362448E-04    3
 0.15769739E-07-0.53897452E-11 0.33749932E+05 0.88867772E+01 0.35003406E+05    4
C3H2              T12/00C   3H   2    0    0G   200.000  6000.000              1
 0.73481207E+01 0.44476404E-02-0.12610332E-05 0.78131814E-10 0.13216298E-13    2
 0.62551656E+05-0.91040211E+01 0.45094776E+01 0.17438605E-01-0.24516321E-04    3
 0.18993967E-07-0.57996520E-11 0.63080191E+05 0.42892461E+01                   4
C3H2-2            S 4/01C   3H   2    0    0G   200.000  3000.000              1
 7.47247827E+00 4.57765160E-03-1.56482125E-06 2.43991965E-10-1.42462924E-14    2
 8.83321441E+04-1.27113314E+01 3.74356467E+00 2.51955211E-02-4.62608277E-05    3
 4.34360520E-08-1.53992558E-11 8.89297787E+04 4.22612394E+00 9.08356403E+04    4
cC3H2             121686C   3H   2          G  0300.00   5000.00  1000.00      1
 0.06530853E+02 0.05870316E-01-0.01720777E-04 0.02127498E-08-0.08291910E-13    2
 0.05115214E+06-0.01122728E+03 0.02691077E+02 0.01480366E+00-0.03250551E-04    3
-0.08644363E-07 0.05284878E-10 0.05219072E+06 0.08757391E+02                   4
C3H3              T 5/97C   3H   3    0    0G   200.000  6000.000              1
 7.14221880E+00 7.61902005E-03-2.67459950E-06 4.24914801E-10-2.51475415E-14    2
 3.89087427E+04-1.25848436E+01 1.35110927E+00 3.27411223E-02-4.73827135E-05    3
 3.76309808E-08-1.18540923E-11 4.01057783E+04 1.52058924E+01 4.16139977E+04    4
aC3H4             L 8/89C   3H   4    0    0G   200.000  6000.000              1
 0.63168722E+01 0.11133728E-01-0.39629378E-05 0.63564238E-09-0.37875540E-13    2
 0.20117495E+05-0.10995766E+02 0.26130445E+01 0.12122575E-01 0.18539880E-04    3
-0.34525149E-07 0.15335079E-10 0.21541567E+05 0.10226139E+02 0.22962267E+05    4
pC3H4             T 2/90H   4C   3    0    0G   200.000  6000.000              1
 0.60252400E+01 0.11336542E-01-0.40223391E-05 0.64376063E-09-0.38299635E-13    2
 0.19620942E+05-0.86043785E+01 0.26803869E+01 0.15799651E-01 0.25070596E-05    3
-0.13657623E-07 0.66154285E-11 0.20802374E+05 0.98769351E+01 0.22302059E+05    4
cC3H4             T12/81C   3H   4    0    0G   300.000  5000.000              1
 0.66999931E+01 0.10357372E-01-0.34551167E-05 0.50652949E-09-0.26682276E-13    2
 0.30199051E+05-0.13378770E+02-0.24621047E-01 0.23197215E-01-0.18474357E-05    3
-0.15927593E-07 0.86846155E-11 0.32334137E+05 0.22729762E+02 0.3332728 E+05    4
C3H8              P11/94C   3H   8    0    0G   300.000  3000.000              1