!Kinetic model, fluorine-containing species reactions
!
!from  "yf-zee-zf-c1c2-apr-17-2020-ex63-add-frozen.txt"
!
ELEMENTS
O  H  C  N  F AR
end
species
H2      H       O       O2      OH      H2O     HO2     H2O2    
C       CH      CH2     CH2(S)  CH3     CH4     CO      CO2     
HCO     CH2O    CH2OH   CH3O    CH3OH   C2H     C2H2    C2H3    
C2H4    C2H5    C2H6    HCCO    CH2CO   HCCOH  
AR      C3H7   C3H8     CH2CHO  CH3CHO  N2 !C3H8

CH3CO
C3H6
CH3CCH2

!********************************
!*** Hydrogen/Oxygen/Fluorine ***
!********************************
HF        F         F2

!************************
!*** C1 Fluorocarbons ***
!************************
CH3F      CH2F2     CHF3      CF4 CH2F      CHF2      CF3
                    CHF       CF2 CF

!*********************************
!*** Oxidized C1 Fluorocarbons ***
!*********************************
CF3O CF2O CHFO CFO

!*********************
!*** Fluoroethanes ***
!*********************
CH3-CH2F  CH3-CHF2  CH3-CF3
CH2F-CH2F CH2F-CHF2 CH2F-CF3
          CHF2-CHF2 CHF2-CF3
                    CF3-CF3

!*********************
!***  Fluoroethyls ***
!*********************
          CH3-CHF   CH3-CF2
CH2F-CH2  CH2F-CHF  CH2F-CF2
CHF2-CH2  CHF2-CHF  CHF2-CF2
CF3-CH2   CF3-CHF   CF3-CF2

!**********************
!***  Fluoroethenes ***
!**********************
CH2CHF    CH2CF2
CHFCHF[Z] CHFCF2
CF2CF2

!*********************
!***  Fluorovinyls ***
!*********************
          CH2CF
CHFCH[Z] CHFCF[Z]
CF2CH    CF2CF

!**********************
!***  Fluoroethynes ***
!**********************
C2HF      C2F2

!*********************
!*** Fluoroketenes ***
!*********************
CHFCO      CF2CO     CFCO

!********************
!** FM-200 species **
!********************
C3F7H C3F7 C3F6 C3F7O2
C3F7O
C3F6O 
C3F7OH
CF3COF 
CF3CO 
CF3CHO
!***************************
!*** 2BTP ****
!***************************
CF3CHCH2
CF3CCH2
CF3CHCH
CF3CCH
CF3COCH3

!***************************
!*** HFO1234yf**************
!***************************
CH2CFCF3
CH-CFCF3
CFCCF3

!***************************
!*** HFO1234zee ************
!***************************
CHFCHCF3        !1234zee
CFCHCF3
CHFCCF3
CH2CFO

end

THERMO
   300.000  1000.000  5000.000
! GRI-Mech Version 3.0 Thermodynamics released 7/30/99
! NASA Polynomial format for CHEMKIN-II
! see README file for disclaimer
O                 L 1/90O   1               G   200.000  3500.000  1000.000    1
 2.56942078E+00-8.59741137E-05 4.19484589E-08-1.00177799E-11 1.22833691E-15    2
 2.92175791E+04 4.78433864E+00 3.16826710E+00-3.27931884E-03 6.64306396E-06    3
-6.12806624E-09 2.11265971E-12 2.91222592E+04 2.05193346E+00                   4
O2                TPIS89O   2               G   200.000  3500.000  1000.000    1
 3.28253784E+00 1.48308754E-03-7.57966669E-07 2.09470555E-10-2.16717794E-14    2
-1.08845772E+03 5.45323129E+00 3.78245636E+00-2.99673416E-03 9.84730201E-06    3
-9.68129509E-09 3.24372837E-12-1.06394356E+03 3.65767573E+00                   4
H                 L 7/88H   1               G   200.000  3500.000  1000.000    1
 2.50000001E+00-2.30842973E-11 1.61561948E-14-4.73515235E-18 4.98197357E-22    2
 2.54736599E+04-4.46682914E-01 2.50000000E+00 7.05332819E-13-1.99591964E-15    3
 2.30081632E-18-9.27732332E-22 2.54736599E+04-4.46682853E-01                   4
H2                TPIS78H   2               G   200.000  3500.000  1000.000    1
 3.33727920E+00-4.94024731E-05 4.99456778E-07-1.79566394E-10 2.00255376E-14    2
-9.50158922E+02-3.20502331E+00 2.34433112E+00 7.98052075E-03-1.94781510E-05    3
 2.01572094E-08-7.37611761E-12-9.17935173E+02 6.83010238E-01                   4
OH                RUS 78O   1H   1          G   200.000  3500.000  1000.000    1
 3.09288767E+00 5.48429716E-04 1.26505228E-07-8.79461556E-11 1.17412376E-14    2
 3.85865700E+03 4.47669610E+00 3.99201543E+00-2.40131752E-03 4.61793841E-06    3
-3.88113333E-09 1.36411470E-12 3.61508056E+03-1.03925458E-01                   4
H2O               L 8/89H   2O   1          G   200.000  3500.000  1000.000    1
 3.03399249E+00 2.17691804E-03-1.64072518E-07-9.70419870E-11 1.68200992E-14    2
-3.00042971E+04 4.96677010E+00 4.19864056E+00-2.03643410E-03 6.52040211E-06    3
-5.48797062E-09 1.77197817E-12-3.02937267E+04-8.49032208E-01                   4
HO2               L 5/89H   1O   2          G   200.000  3500.000  1000.000    1
 4.01721090E+00 2.23982013E-03-6.33658150E-07 1.14246370E-10-1.07908535E-14    2
 1.11856713E+02 3.78510215E+00 4.30179801E+00-4.74912051E-03 2.11582891E-05    3
-2.42763894E-08 9.29225124E-12 2.94808040E+02 3.71666245E+00                   4
H2O2              L 7/88H   2O   2          G   200.000  3500.000  1000.000    1
 4.16500285E+00 4.90831694E-03-1.90139225E-06 3.71185986E-10-2.87908305E-14    2
-1.78617877E+04 2.91615662E+00 4.27611269E+00-5.42822417E-04 1.67335701E-05    3
-2.15770813E-08 8.62454363E-12-1.77025821E+04 3.43505074E+00                   4
C                 L11/88C   1               G   200.000  3500.000  1000.000    1
 2.49266888E+00 4.79889284E-05-7.24335020E-08 3.74291029E-11-4.87277893E-15    2
 8.54512953E+04 4.80150373E+00 2.55423955E+00-3.21537724E-04 7.33792245E-07    3
-7.32234889E-10 2.66521446E-13 8.54438832E+04 4.53130848E+00                   4
CH                TPIS79C   1H   1          G   200.000  3500.000  1000.000    1
 2.87846473E+00 9.70913681E-04 1.44445655E-07-1.30687849E-10 1.76079383E-14    2
 7.10124364E+04 5.48497999E+00 3.48981665E+00 3.23835541E-04-1.68899065E-06    3
 3.16217327E-09-1.40609067E-12 7.07972934E+04 2.08401108E+00                   4
CH2               L S/93C   1H   2          G   200.000  3500.000  1000.000    1
 2.87410113E+00 3.65639292E-03-1.40894597E-06 2.60179549E-10-1.87727567E-14    2
 4.62636040E+04 6.17119324E+00 3.76267867E+00 9.68872143E-04 2.79489841E-06    3
-3.85091153E-09 1.68741719E-12 4.60040401E+04 1.56253185E+00                   4
CH2(S)            L S/93C   1H   2          G   200.000  3500.000  1000.000    1
 2.29203842E+00 4.65588637E-03-2.01191947E-06 4.17906000E-10-3.39716365E-14    2
 5.09259997E+04 8.62650169E+00 4.19860411E+00-2.36661419E-03 8.23296220E-06    3
-6.68815981E-09 1.94314737E-12 5.04968163E+04-7.69118967E-01                   4
CH3               L11/89C   1H   3          G   200.000  3500.000  1000.000    1
 2.28571772E+00 7.23990037E-03-2.98714348E-06 5.95684644E-10-4.67154394E-14    2
 1.67755843E+04 8.48007179E+00 3.67359040E+00 2.01095175E-03 5.73021856E-06    3
-6.87117425E-09 2.54385734E-12 1.64449988E+04 1.60456433E+00                   4
CH4               L 8/88C   1H   4          G   200.000  3500.000  1000.000    1
 7.48514950E-02 1.33909467E-02-5.73285809E-06 1.22292535E-09-1.01815230E-13    2
-9.46834459E+03 1.84373180E+01 5.14987613E+00-1.36709788E-02 4.91800599E-05    3
-4.84743026E-08 1.66693956E-11-1.02466476E+04-4.64130376E+00                   4
CO                TPIS79C   1O   1          G   200.000  3500.000  1000.000    1
 2.71518561E+00 2.06252743E-03-9.98825771E-07 2.30053008E-10-2.03647716E-14    2
-1.41518724E+04 7.81868772E+00 3.57953347E+00-6.10353680E-04 1.01681433E-06    3
 9.07005884E-10-9.04424499E-13-1.43440860E+04 3.50840928E+00                   4
CO2               L 7/88C   1O   2          G   200.000  3500.000  1000.000    1
 3.85746029E+00 4.41437026E-03-2.21481404E-06 5.23490188E-10-4.72084164E-14    2
-4.87591660E+04 2.27163806E+00 2.35677352E+00 8.98459677E-03-7.12356269E-06    3
 2.45919022E-09-1.43699548E-13-4.83719697E+04 9.90105222E+00                   4
HCO               L12/89H   1C   1O   1     G   200.000  3500.000  1000.000    1
 2.77217438E+00 4.95695526E-03-2.48445613E-06 5.89161778E-10-5.33508711E-14    2
 4.01191815E+03 9.79834492E+00 4.22118584E+00-3.24392532E-03 1.37799446E-05    3
-1.33144093E-08 4.33768865E-12 3.83956496E+03 3.39437243E+00                   4
CH2O              L 8/88H   2C   1O   1     G   200.000  3500.000  1000.000    1
 1.76069008E+00 9.20000082E-03-4.42258813E-06 1.00641212E-09-8.83855640E-14    2
-1.39958323E+04 1.36563230E+01 4.79372315E+00-9.90833369E-03 3.73220008E-05    3
-3.79285261E-08 1.31772652E-11-1.43089567E+04 6.02812900E-01                   4
CH2OH             GUNL93C   1H   3O   1     G   200.000  3500.000  1000.000    1
 3.69266569E+00 8.64576797E-03-3.75101120E-06 7.87234636E-10-6.48554201E-14    2
-3.24250627E+03 5.81043215E+00 3.86388918E+00 5.59672304E-03 5.93271791E-06    3
-1.04532012E-08 4.36967278E-12-3.19391367E+03 5.47302243E+00                   4
CH3O              121686C   1H   3O   1     G   300.00   3000.00   1000.000    1
 0.03770799E+02 0.07871497E-01-0.02656384E-04 0.03944431E-08-0.02112616E-12    2
 0.12783252E+03 0.02929575E+02 0.02106204E+02 0.07216595E-01 0.05338472E-04    3
-0.07377636E-07 0.02075610E-10 0.09786011E+04 0.13152177E+02                   4
CH3OH             L 8/88C   1H   4O   1     G   200.000  3500.000  1000.000    1
 1.78970791E+00 1.40938292E-02-6.36500835E-06 1.38171085E-09-1.17060220E-13    2
-2.53748747E+04 1.45023623E+01 5.71539582E+00-1.52309129E-02 6.52441155E-05    3
-7.10806889E-08 2.61352698E-11-2.56427656E+04-1.50409823E+00                   4
C2H               L 1/91C   2H   1          G   200.000  3500.000  1000.000    1
 3.16780652E+00 4.75221902E-03-1.83787077E-06 3.04190252E-10-1.77232770E-14    2
 6.71210650E+04 6.63589475E+00 2.88965733E+00 1.34099611E-02-2.84769501E-05    3
 2.94791045E-08-1.09331511E-11 6.68393932E+04 6.22296438E+00                   4
C2H2              L 1/91C   2H   2          G   200.000  3500.000  1000.000    1
 4.14756964E+00 5.96166664E-03-2.37294852E-06 4.67412171E-10-3.61235213E-14    2
 2.59359992E+04-1.23028121E+00 8.08681094E-01 2.33615629E-02-3.55171815E-05    3
 2.80152437E-08-8.50072974E-12 2.64289807E+04 1.39397051E+01                   4
C2H3              L 2/92C   2H   3          G   200.000  3500.000  1000.000    1
 3.01672400E+00 1.03302292E-02-4.68082349E-06 1.01763288E-09-8.62607041E-14    2
 3.46128739E+04 7.78732378E+00 3.21246645E+00 1.51479162E-03 2.59209412E-05    3
-3.57657847E-08 1.47150873E-11 3.48598468E+04 8.51054025E+00                   4
C2H4              L 1/91C   2H   4          G   200.000  3500.000  1000.000    1
 2.03611116E+00 1.46454151E-02-6.71077915E-06 1.47222923E-09-1.25706061E-13    2
 4.93988614E+03 1.03053693E+01 3.95920148E+00-7.57052247E-03 5.70990292E-05    3
-6.91588753E-08 2.69884373E-11 5.08977593E+03 4.09733096E+00                   4
C2H5              L12/92C   2H   5          G   200.000  3500.000  1000.000    1
 1.95465642E+00 1.73972722E-02-7.98206668E-06 1.75217689E-09-1.49641576E-13    2
 1.28575200E+04 1.34624343E+01 4.30646568E+00-4.18658892E-03 4.97142807E-05    3
-5.99126606E-08 2.30509004E-11 1.28416265E+04 4.70720924E+00                   4
C2H6              L 8/88C   2H   6          G   200.000  3500.000  1000.000    1
 1.07188150E+00 2.16852677E-02-1.00256067E-05 2.21412001E-09-1.90002890E-13    2
-1.14263932E+04 1.51156107E+01 4.29142492E+00-5.50154270E-03 5.99438288E-05    3
-7.08466285E-08 2.68685771E-11-1.15222055E+04 2.66682316E+00                   4
CH2CO             L 5/90C   2H   2O   1     G   200.000  3500.000  1000.000    1
 4.51129732E+00 9.00359745E-03-4.16939635E-06 9.23345882E-10-7.94838201E-14    2
-7.55105311E+03 6.32247205E-01 2.13583630E+00 1.81188721E-02-1.73947474E-05    3
 9.34397568E-09-2.01457615E-12-7.04291804E+03 1.22156480E+01                   4
HCCO              SRIC91H   1C   2O   1     G   300.00   4000.00   1000.000    1
 0.56282058E+01 0.40853401E-02-0.15934547E-05 0.28626052E-09-0.19407832E-13    2
 0.19327215E+05-0.39302595E+01 0.22517214E+01 0.17655021E-01-0.23729101E-04    3
 0.17275759E-07-0.50664811E-11 0.20059449E+05 0.12490417E+02                   4
HCCOH              SRI91C   2O   1H   2     G   300.000  5000.000  1000.000    1
 0.59238291E+01 0.67923600E-02-0.25658564E-05 0.44987841E-09-0.29940101E-13    2
 0.72646260E+04-0.76017742E+01 0.12423733E+01 0.31072201E-01-0.50866864E-04    3
 0.43137131E-07-0.14014594E-10 0.80316143E+04 0.13874319E+02                   4
H2CN               41687H   2C   1N   1     G   300.00   4000.000  1000.000    1
 0.52097030E+01 0.29692911E-02-0.28555891E-06-0.16355500E-09 0.30432589E-13    2
 0.27677109E+05-0.44444780E+01 0.28516610E+01 0.56952331E-02 0.10711400E-05    3
-0.16226120E-08-0.23511081E-12 0.28637820E+05 0.89927511E+01                   4
HCN               GRI/98H   1C   1N   1     G   200.000  6000.000  1000.000    1
 0.38022392E+01 0.31464228E-02-0.10632185E-05 0.16619757E-09-0.97997570E-14    2
 0.14407292E+05 0.15754601E+01 0.22589886E+01 0.10051170E-01-0.13351763E-04    3
 0.10092349E-07-0.30089028E-11 0.14712633E+05 0.89164419E+01                   4
HNO               And93 H   1N   1O   1     G   200.000  6000.000  1000.000    1
 0.29792509E+01 0.34944059E-02-0.78549778E-06 0.57479594E-10-0.19335916E-15    2
 0.11750582E+05 0.86063728E+01 0.45334916E+01-0.56696171E-02 0.18473207E-04    3
-0.17137094E-07 0.55454573E-11 0.11548297E+05 0.17498417E+01                   4
N                 L 6/88N   1               G   200.000  6000.000  1000.000    1
 0.24159429E+01 0.17489065E-03-0.11902369E-06 0.30226245E-10-0.20360982E-14    2
 0.56133773E+05 0.46496096E+01 0.25000000E+01 0.00000000E+00 0.00000000E+00    3
 0.00000000E+00 0.00000000E+00 0.56104637E+05 0.41939087E+01                   4
NNH               T07/93N   2H   1          G   200.000  6000.000  1000.000    1
 0.37667544E+01 0.28915082E-02-0.10416620E-05 0.16842594E-09-0.10091896E-13    2
 0.28650697E+05 0.44705067E+01 0.43446927E+01-0.48497072E-02 0.20059459E-04    3
-0.21726464E-07 0.79469539E-11 0.28791973E+05 0.29779410E+01                   4
N2O               L 7/88N   2O   1          G   200.000  6000.000  1000.000    1
 0.48230729E+01 0.26270251E-02-0.95850874E-06 0.16000712E-09-0.97752303E-14    2
 0.80734048E+04-0.22017207E+01 0.22571502E+01 0.11304728E-01-0.13671319E-04    3
 0.96819806E-08-0.29307182E-11 0.87417744E+04 0.10757992E+02                   4
NH                And94 N   1H   1          G   200.000  6000.000  1000.000    1
 0.27836928E+01 0.13298430E-02-0.42478047E-06 0.78348501E-10-0.55044470E-14    2
 0.42120848E+05 0.57407799E+01 0.34929085E+01 0.31179198E-03-0.14890484E-05    3
 0.24816442E-08-0.10356967E-11 0.41880629E+05 0.18483278E+01                   4
NH2               And89 N   1H   2          G   200.000  6000.000  1000.000    1
 0.28347421E+01 0.32073082E-02-0.93390804E-06 0.13702953E-09-0.79206144E-14    2
 0.22171957E+05 0.65204163E+01 0.42040029E+01-0.21061385E-02 0.71068348E-05    3
-0.56115197E-08 0.16440717E-11 0.21885910E+05-0.14184248E+00                   4
NH3               J 6/77N   1H   3          G   200.000  6000.000  1000.000    1
 0.26344521E+01 0.56662560E-02-0.17278676E-05 0.23867161E-09-0.12578786E-13    2
-0.65446958E+04 0.65662928E+01 0.42860274E+01-0.46605230E-02 0.21718513E-04    3
-0.22808887E-07 0.82638046E-11-0.67417285E+04-0.62537277E+00                   4
NO                RUS 78N   1O   1          G   200.000  6000.000  1000.000    1
 0.32606056E+01 0.11911043E-02-0.42917048E-06 0.69457669E-10-0.40336099E-14    2
 0.99209746E+04 0.63693027E+01 0.42184763E+01-0.46389760E-02 0.11041022E-04    3
-0.93361354E-08 0.28035770E-11 0.98446230E+04 0.22808464E+01                   4
NO2               L 7/88N   1O   2          G   200.000  6000.000  1000.000    1
 0.48847542E+01 0.21723956E-02-0.82806906E-06 0.15747510E-09-0.10510895E-13    2
 0.23164983E+04-0.11741695E+00 0.39440312E+01-0.15854290E-02 0.16657812E-04    3
-0.20475426E-07 0.78350564E-11 0.28966179E+04 0.63119917E+01                   4
HCNO              BDEA94H   1N   1C   1O   1G   300.000  5000.000  1382.000    1
 6.59860456E+00 3.02778626E-03-1.07704346E-06 1.71666528E-10-1.01439391E-14    2
 1.79661339E+04-1.03306599E+01 2.64727989E+00 1.27505342E-02-1.04794236E-05    3
 4.41432836E-09-7.57521466E-13 1.92990252E+04 1.07332972E+01                   4
HOCN              BDEA94H   1N   1C   1O   1G   300.000  5000.000  1368.000    1
 5.89784885E+00 3.16789393E-03-1.11801064E-06 1.77243144E-10-1.04339177E-14    2
-3.70653331E+03-6.18167825E+00 3.78604952E+00 6.88667922E-03-3.21487864E-06    3
 5.17195767E-10 1.19360788E-14-2.82698400E+03 5.63292162E+00                   4
HNCO              BDEA94H   1N   1C   1O   1G   300.000  5000.000  1478.000    1
 6.22395134E+00 3.17864004E-03-1.09378755E-06 1.70735163E-10-9.95021955E-15    2
-1.66599344E+04-8.38224741E+00 3.63096317E+00 7.30282357E-03-2.28050003E-06    3
-6.61271298E-10 3.62235752E-13-1.55873636E+04 6.19457727E+00                   4
NCO               EA 93 N   1C   1O   1     G   200.000  6000.000  1000.000    1
 0.51521845E+01 0.23051761E-02-0.88033153E-06 0.14789098E-09-0.90977996E-14    2
 0.14004123E+05-0.25442660E+01 0.28269308E+01 0.88051688E-02-0.83866134E-05    3
 0.48016964E-08-0.13313595E-11 0.14682477E+05 0.95504646E+01                   4
CN                HBH92 C   1N   1          G   200.000  6000.000  1000.000    1
 0.37459805E+01 0.43450775E-04 0.29705984E-06-0.68651806E-10 0.44134173E-14    2
 0.51536188E+05 0.27867601E+01 0.36129351E+01-0.95551327E-03 0.21442977E-05    3
-0.31516323E-09-0.46430356E-12 0.51708340E+05 0.39804995E+01                   4
HCNN              SRI/94C   1N   2H   1     G   300.000  5000.000  1000.000    1
 0.58946362E+01 0.39895959E-02-0.15982380E-05 0.29249395E-09-0.20094686E-13    2
 0.53452941E+05-0.51030502E+01 0.25243194E+01 0.15960619E-01-0.18816354E-04    3
 0.12125540E-07-0.32357378E-11 0.54261984E+05 0.11675870E+02                   4
N2                121286N   2               G   300.000  5000.000  1000.000    1
 0.02926640E+02 0.14879768E-02-0.05684760E-05 0.10097038E-09-0.06753351E-13    2
-0.09227977E+04 0.05980528E+02 0.03298677E+02 0.14082404E-02-0.03963222E-04    3
 0.05641515E-07-0.02444854E-10-0.10208999E+04 0.03950372E+02                   4
AR                120186AR  1               G   300.000  5000.000  1000.000    1
 0.02500000E+02 0.00000000E+00 0.00000000E+00 0.00000000E+00 0.00000000E+00    2
-0.07453750E+04 0.04366000E+02 0.02500000E+02 0.00000000E+00 0.00000000E+00    3
 0.00000000E+00 0.00000000E+00-0.07453750E+04 0.04366000E+02                   4
C3H8              L 4/85C   3H   8          G   300.000  5000.000  1000.000    1
 0.75341368E+01 0.18872239E-01-0.62718491E-05 0.91475649E-09-0.47838069E-13    2
-0.16467516E+05-0.17892349E+02 0.93355381E+00 0.26424579E-01 0.61059727E-05    3
-0.21977499E-07 0.95149253E-11-0.13958520E+05 0.19201691E+02                   4
C3H7              L 9/84C   3H   7          G   300.000  5000.000  1000.000    1
 0.77026987E+01 0.16044203E-01-0.52833220E-05 0.76298590E-09-0.39392284E-13    2
 0.82984336E+04-0.15480180E+02 0.10515518E+01 0.25991980E-01 0.23800540E-05    3
-0.19609569E-07 0.93732470E-11 0.10631863E+05 0.21122559E+02                   4
CH3CHO            L 8/88C   2H   4O   1     G   200.000  6000.000  1000.000    1
 0.54041108E+01 0.11723059E-01-0.42263137E-05 0.68372451E-09-0.40984863E-13    2
-0.22593122E+05-0.34807917E+01 0.47294595E+01-0.31932858E-02 0.47534921E-04    3
-0.57458611E-07 0.21931112E-10-0.21572878E+05 0.41030159E+01                   4
CH2CHO            SAND86O   1H   3C   2     G   300.000  5000.000  1000.000    1
 0.05975670E+02 0.08130591E-01-0.02743624E-04 0.04070304E-08-0.02176017E-12    2
 0.04903218E+04-0.05045251E+02 0.03409062E+02 0.10738574E-01 0.01891492E-04    3
-0.07158583E-07 0.02867385E-10 0.15214766E+04 0.09558290E+02                   4
!********************************
!*** Hydrogen/Oxygen/Fluorine ***
!********************************
F                 J 6/82F   1    0    0    0G   200.000  6000.000 1000.        1 burcat,2013
 0.26716339E+01-0.17461853E-03 0.69066504E-07-0.11953478E-10 0.75236739E-15    2
 0.87874123E+04 0.39842568E+01 0.24196743E+01 0.29392909E-02-0.89212228E-05    3
 0.99118537E-08-0.37947152E-11 0.87573220E+04 0.47468987E+01 0.95483679E+04    4
HF                T 2/11F  1.H  1.   0.   0.G   200.000  6000.000 1000.        1 burcat,2013
 2.92491143E+00 8.50523032E-04-1.58179777E-07 1.17507204E-11-1.43309132E-16    2
-3.36352481E+04 4.19018883E+00 3.48137108E+00 2.12245717E-04-6.86359044E-07    3
 8.56185857E-10-2.34581508E-13-3.38607305E+04 1.02579990E+00-3.28178089E+04    4
F2  REF ELEMENT   RUS 89F   2    0    0    0G   200.000  6000.000 1000.        1 burcat,2013  
 3.86166219E+00 7.88367679E-04-1.81982940E-07-9.17436560E-12 2.65193472E-15    2
-1.23238655E+03 2.04119869E+00 3.20832415E+00 1.25919179E-03 3.89747979E-06    3
-7.22184984E-09 3.31837862E-12-1.03425794E+03 5.61903603E+00 0.00000000E+00    4
HOF               T 5/11H  1.O  1.F  1.   0.G   200.000  6000.000 1000.        1 burcat,2013
 4.12528386E+00 2.31519777E-03-7.76666333E-07 1.19549024E-10-6.91728055E-15    2
-1.19136862E+04 2.89862207E+00 3.92035391E+00-1.39927977E-03 1.39115337E-05    3
-1.79018174E-08 7.24565658E-12-1.16927573E+04 4.87858424E+00-1.04951464E+04    4
F2O               71STU/F   2O   1    0    0G   300.00   3000.00  1245.00      1
 0.60502237E+01 0.11801203E-02-0.62998049E-06 0.16265308E-09-0.16630594E-13    2
 0.86796609E+03-0.55559173E+01 0.23117985E+01 0.14403418E-01-0.18975198E-04    3
 0.11788725E-07-0.28156285E-11 0.17661785E+04 0.13044809E+02                   4
FO                ATcT/AF  1.O  1.   0.   0.G   200.000  6000.000 1000.        1 burcat,2013
 4.10435161E+00 3.22444815E-04-6.01630664E-08-1.10998596E-11 1.61567239E-15    2
 1.20593514E+04 2.35480534E+00 4.34438108E+00-5.37168023E-03 1.77166504E-05    3
-2.00073120E-08 7.67510992E-12 1.22051341E+04 2.24948929E+00 1.33822679E+04    4
FO2               71STU/F   1O   2    0    0G   300.00   3000.00  1360.00      1
 0.56242097E+01 0.17066411E-02-0.89995239E-06 0.22561211E-09-0.22048285E-13    2
-0.40013089E+03-0.17257001E+01 0.36727894E+01 0.76317941E-02-0.79426701E-05    3
 0.40752038E-08-0.83001063E-12 0.13887520E+03 0.82723509E+01                   4
!************************
!*** C1 Fluorocarbons ***
!************************
CH3F  FC-41 -236  T05/11C  1.H  3.F  1.   0.G   200.000  6000.000 1000.        1 2018GAN/KAL(burcat,2013)
 3.31348457E+00 8.59183430E-03-3.07886159E-06 4.96069542E-10-2.96514660E-14    2
-3.00122760E+04 4.75257452E+00 5.03514272E+00-1.46119198E-02 6.06479225E-05    3
-6.60649862E-08 2.42867162E-11-2.95973280E+04 3.08070101E-01-2.84535108E+04    4
CH2F2   FC-32     T 9/99C   1H   2F   2    0G   200.000  6000.000 1000.        1 2018GAN/KAL(burcat,2013)   
 5.06948195E+00 7.23193135E-03-2.64021025E-06 4.30854708E-10-2.59873096E-14    2
-5.65991527E+04-2.34590394E+00 4.25023157E+00-6.84861262E-03 4.85583334E-05    3
-5.83442752E-08 2.24503933E-11-5.56073052E+04 5.76716418E+00-5.44480432E+04    4
CHF3  FLUOROFORM  T 9/99C   1H   1F   3    0G   200.000  6000.000 1000.        1 2018GAN/KAL(burcat,2013)  
 7.24609031E+00 5.42386441E-03-2.02314394E-06 3.34946402E-10-2.04067524E-14    2
-8.68239019E+04-1.28982398E+01 2.73539203E+00 8.72478957E-03 1.74821510E-05    3
-3.21504750E-08 1.41694928E-11-8.51820557E+04 1.24879863E+01-8.33830015E+04    4
CF4    FC-14      g 7/99C  1.F  4.   0.   0.G   200.000  6000.000 1000.        1 burcat,2013
 9.47336526E+00 3.59407743E-03-1.40334012E-06 2.39113889E-10-1.48513407E-14    2
-1.15816621E+05-2.49736848E+01 1.05119594E+00 2.78318369E-02-2.46683439E-05    3
 6.75882532E-09 9.14850873E-13-1.13574198E+05 1.81936795E+01-1.12227900E+05    4
CH2F              T 8/09C  1.H  2.F  1.   0.G   200.000  6000.000 1000.        1 2018GAN/KAL(burcat,2013)
 4.11283513E+00 5.00104452E-03-1.74095833E-06 2.75007611E-10-1.62099637E-14    2
-5.25924503E+03 2.38852694E+00 3.78123930E+00-4.49840351E-04 1.88358140E-05    3
-2.40702692E-08 9.53477519E-12-4.88500871E+03 5.56895443E+00-3.85801124E+03    4
CHF2              g 6/88C  1.H  1.F  2.   0.G   200.000  6000.000 1000.        1 2018GAN/KAL(burcat,2013)
 5.52321120E+00 4.21970092E-03-1.58435294E-06 2.63969157E-10-1.61337618E-14    2
-3.14404682E+04-2.40335469E+00 4.12220872E+00-2.33706659E-03 2.99282606E-05    3
-3.88422961E-08 1.55352879E-11-3.05990045E+04 7.22245467E+00-2.87329019E+04    4
CF3               ATcT/AC  1.F  3.   0.   0.G   200.000  6000.000 1000.        1 2018GAN/KAL(burcat,2013)
 7.42981696E+00 2.61728694E-03-1.02141596E-06 1.73975666E-10-1.08028191E-14    2
-5.91795501E+04-1.22816891E+01 2.38179059E+00 1.37269527E-02-3.47674937E-06    3
-9.01697393E-09 5.57384083E-12-5.76871035E+04 1.43743316E+01-5.62149784E+04    4
CHF  singlet      T 7/11C  1.H  1.F  1.   0.G   200.000  6000.000 1000.        1 burcat,2013
 2.09415280E+00 5.34934017E-03-1.69762943E-06 2.19446141E-10-1.00205977E-14    2
 1.72042147E+04 1.37860960E+01 4.42272584E+00-5.60196198E-03 2.21848969E-05    3
-2.39634368E-08 8.91306513E-12 1.66515542E+04 2.54111183E+00 1.78740539E+04    4
CF2               ATcT/AC  1.F  2.   0.   0.G   200.000  6000.000 1000.        1 2018GAN/KAL(burcat,2013)
 5.35787718E+00 1.80622418E-03-7.80465045E-07 1.47642691E-10-9.44754424E-15    2
-2.52559006E+04-2.63410779E+00 3.56435487E+00 1.23021056E-03 1.39909866E-05    3
-2.13708286E-08 9.10710807E-12-2.45418819E+04 7.83907808E+00-2.30031595E+04    4
CF                ATcT/AC  1.F  1.   0.   0.G   200.000  6000.000 1000.        1 burcat,2013
 3.74644062E+00 8.01632001E-04-2.95064248E-07 5.03803598E-11-3.08738254E-15    2
 2.84554882E+04 3.84191679E+00 3.99598712E+00-4.62546013E-03 1.58270762E-05    3
-1.73528410E-08 6.45553921E-12 2.86045210E+04 3.67054970E+00 2.96989239E+04    4
!*********************************
!*** Oxidized C1 Fluorocarbons ***
!*********************************
CHFO              T07/11C  1.O  1.F  1.H  1.G   200.000  6000.000 1000.        1 burcat,2013
 4.78813214E+00 4.76650220E-03-1.74367126E-06 2.84956025E-10-1.72050907E-14    2
-4.79424476E+04 3.51967468E-01 3.74246307E+00-1.31011108E-03 2.46792673E-05    3
-3.12953787E-08 1.22624735E-11-4.72269701E+04 7.89719615E+00-4.60074015E+04    4
CF2O              T 5/11C  1.O  1.F  2.   0.G   200.000  6000.000 1000.        1 burcat,2013
 6.81631709E+00 3.16473302E-03-1.21776278E-06 2.05582278E-10-1.26893138E-14    2
-7.55374518E+04-9.52865117E+00 2.12979433E+00 1.41019782E-02-5.94383395E-06    3
-5.30542094E-09 3.97366263E-12-7.41637142E+04 1.51109046E+01-7.29630489E+04    4
CFO  (CFO/COF)    T 9/11F  1.C  1.O  1.   0.G   200.000  6000.000 1000.        1 burcat,2013
 5.01565891E+00 1.95763376E-03-7.49685297E-07 1.25610155E-10-7.59885072E-15    2
-2.29785255E+04 3.69669039E-01 3.37992233E+00 4.19050548E-03 2.12353533E-06    3
-6.20586665E-09 2.85352218E-12-2.24063200E+04 9.39466699E+00-2.12044967E+04    4
CF3O Radical      T07/04C  1.F  3.O  1.   0.G   200.000  6000.000 1000.        1 burcat,2013
 9.76423201E+00 3.30092424E-03-1.28961521E-06 2.19815579E-10-1.36560199E-14    2
-7.94771282E+04-2.37694198E+01 1.82041152E+00 2.65327204E-02-2.45066904E-05    3
 7.86171828E-09 2.73540764E-13-7.73780958E+04 1.68621895E+01-7.58568931E+04    4
!*********************
!*** Fluoroethanes ***
!*********************
CH3-CH2F          T 6/11C  2.H  5.F  1.   0.G   200.000  6000.000 1000.        1 burcat,2013
 6.18081698E+00 1.35890229E-02-4.87040213E-06 7.84862029E-10-4.69209214E-14    2
-3.58341343E+04-7.96594699E+00 4.00577312E+00-3.11043983E-04 5.57188865E-05    3
-7.28404563E-08 2.90642195E-11-3.43213851E+04 7.92813391E+00-3.27788408E+04    4
CH2F-CH2F  HFC-152T 9/10C  2.H  4.F  2.   0.G   200.000  6000.000 1000.        1 2018GAN/KAL(burcat,2013)
 1.00315710E+01 1.11994308E-02-4.26519119E-06 7.11447245E-10-4.35028559E-14    2
-5.85296182E+04-2.85864919E+01 5.58943786E+00-1.13537115E-02 9.78443079E-05    3
-1.22110880E-07 4.76646013E-11-5.56834525E+04 2.61081947E+00-5.41655491E+04    4
CH3-CHF2  HFC-152aT 6/11C  2.F  2.H  4.   0.G   200.000  6000.000 1000.        1 2018GAN/KAL(burcat,2013)
 7.67995887E+00 1.22243125E-02-4.37573530E-06 7.04756402E-10-4.21223621E-14    2
-6.40850702E+04-1.47344376E+01 3.25212905E+00 1.18717590E-02 2.57923969E-05    3
-4.29488908E-08 1.82237758E-11-6.22767756E+04 1.11051557E+01-6.01899571E+04    4
CH2F-CHF2 68LACSKI96ZAC C   2H   3F   3    0G   300.00   3000.00  1100.00      1 2018GAN/KAL
 0.92726485E+01 0.12040181E-01-0.48605999E-05 0.88656689E-09-0.59650602E-13    2
-8.43982994E+04-0.21387996E+02 0.64737590E+00 0.36292494E-01-0.31143200E-04    3
 0.14464592E-07-0.30120967E-11-8.19413424E+04 0.23295333E+02                   4
CH3-CF3 FC-143A   T11/03C  2.H  3.F  3.   0.G   200.000  6000.000 1000.        1 2018GAN/KAL(burcat,2013)  
 1.00540918E+01 1.02515900E-02-3.70172133E-06 5.99863654E-10-3.60117460E-14    2
-9.48129775E+04-2.72330585E+01 1.75260632E+00 3.04395701E-02-1.49788607E-05    3
-5.70775683E-09 5.66225345E-12-9.24091835E+04 1.62401353E+01-9.08838885E+04    4
CHF2-CHF2         T 5/03C  2.H  2.F  4.   0.G   200.000  6000.000 1000.        1 2018GAN/KAL(burcat,2013)
 1.19960865E+01 8.98721146E-03-3.36363101E-06 5.54000254E-10-3.35654907E-14    2
-1.10809976E+05-3.53416069E+01 3.98924014E+00 1.72571738E-02 2.36853869E-05    3
-4.89142700E-08 2.21225708E-11-1.08018610E+05 9.12364634E+00-1.06235966E+05    4
CH2F-CF3          T 5/03C  2.H  2.F  4.   0.G   200.000  6000.000 1000.        1 2018GAN/KAL(burcat,2013)
 1.25551115E+01 8.40186071E-03-3.12077291E-06 5.12284572E-10-3.10110291E-14    2
-1.14409890E+05-3.80374329E+01 2.29239681E+00 3.03108483E-02-5.33713985E-06    3
-2.19456612E-08 1.29970288E-11-1.11354002E+05 1.62830568E+01-1.09844116E+05    4
!CHF2-CF3          A 4/05C  2.H  1.F  5.   0.G   200.000  6000.000 1000.        1 2018GAN/KAL(burcat,2013)