units(length='cm', time='s', quantity='mol', act_energy='kcal/mol')

ideal_gas(name='gas',
          elements="H D T C Ci O Oi N Ne Ar He Si S F Cl Br I X",
          species="""N2          Ne          C3H2F4(1)   OH(2)
                     O2(3)       H2O(4)      H(5)        O(6)
                     H2(7)       CO2(8)      HO2(9)      H2O2(10)
                     CO(11)      HCO(12)     CH2O(13)    C(14)
                     CH(15)      CH2(16)     HCCO(17)    CH3(18)
                     C2H(19)     CH2CO(20)   C2H2(21)    CH2*(22)
                     AR(23)      CH3OH(24)   CH2OH(25)   CH3O(26)
                     CH4(27)     C2H3(28)    C2H4(29)    C2H6(30)
                     C2H5(31)    C3H3(32)    C2O(33)     H2CC(34)
                     HCCOH(35)   C4H2(36)    nC4H3(37)   iC4H3(38)
                     pC3H4(39)   aC3H4(40)   C3H5(41)    C3H5(42)
                     aC3H5(43)   C4H4(44)    C4H6(45)    CH2CHO(46)
                     C3H4O(47)   C3H6(48)    nC4H5(49)   iC4H5(50)
                     CH3CHO(51)  CH3CO(52)   C2H4O(53)   CH2OCH(54)
                     nC3H7(55)   C4H7(56)    C3H8(57)    C4H81(58)
                     C4H612(59)  C5H5(60)    C6H5(61)    C6H6(62)
                     C7H7(63)    C7H8(64)    iC4H7(65)   cC3H4(66)
                     lC5H7(67)   iC4H8(68)   iC3H7(69)   C3H6O(70)
                     C3H3O(71)   C3H6O(72)   C3H6O(73)   H2C4O(74)
                     C6H2(75)    C6H3(76)    l-C6H4(77)  o-C6H4(78)
                     C4H5O(79)   C4H5-2(80)  C5H6(81)    C4H5O(82)
                     C4H6O(83)   C4H6O(84)   C4H6-2(85)  C4H6O(86)
                     C4H6O(87)   C4H4O(88)   pC4H9(89)   sC4H9(90)
                     C4H82(91)   iC4H9(92)   C4H10(93)   iC4H10(94)
                     tC4H9(95)   C7H7(96)    C7H7O(97)   C7H6O(98)
                     C7H8O(99)   C6H6O(100)  C6H5O(101)  C7H8O(102)
                     C7H5O(103)  S(104)      C5H4O(105)  C5H5O(106)
                     C5H5O(107)  C5H5O(108)  C5H6O(109)  C4H5(110)
                     C2H6O(111)  C2H5O(112)  C2H5O(113)  C2H5O(114)
                     S(115)      C2HF4(116)  C2HF3(117)  F(118)
                     CH2F(119)   HF(120)     CHF(121)    CHF3(122)
                     CF3(123)    CH2F2(124)  CF(125)     CFO(126)
                     CHFO(127)   CHF2(128)   CF2O(129)   CF2(130)
                     CF2CO(131)  CH3F(132)   CF4(133)    CHFCO(134)
                     CF3O(135)   C2H2F(136)  C2HF(137)   C2H3F(138)
                     C2H5F(139)  S(140)      S(141)      S(142)
                     S(143)      S(144)      S(145)      S(146)
                     S(147)      C2HF5(148)  C2F4(149)   C2H4F(150)
                     C2H4F(151)  S(152)      S(153)      S(154)
                     S(155)      S(156)      S(157)      C2HF4(158)
                     C2F5(159)   C2F6(160)   C2F2(161)   C2H2F(162)
                     C2HF2(163)  C2HF2(164)  C2F3(165)   CFCO(166)
                     CF3CO(167)  S(168)      C2F4O(169)  F2(170)
                     S(171)      S(172)      S(173)      C3HF3(174)
                     C3HF4(175)  S(176)      S(177)      S(178)
                     S(179)      S(180)      S(181)      C3F4O(182)
                     CF3CF(183)  S(184)      S(185)      S(186)
                     S(187)      S(188)      S(189)      S(190)
                     S(229)      S(230)      S(231)      S(234)
                     S(236)      S(237)      S(239)      S(242)
                     S(245)      C3HF4(248)  S(250)      O2(258)
                     S(259)      S(260)      S(261)      S(271)
                     C3HF4(274)  S(737)      S(747)      S(750)
                     S(834)      CHO2(856)   CH2O2(867)  CFO2(872)
                     CHFO2(874)  S(887)      S(1292)     S(1368)
                     S(2637)     S(2743)     S(2812)     S(2836)
                     S(2837)     S(2839)     S(3976)     S(4048)
                     S(4159)     S(4160)     S(4161)     S(4440)
                     S(4441)     S(4838)     S(4839)     S(4931)
                     S(5084)     S(5700)     S(5843)     S(5880)
                     S(5907)     S(5922)     S(5996)     S(6017)
                     S(6316)     S(6468)     S(6645)     S(6646)
                     S(8873)     S(8875)     S(8910)     S(9533)
                     S(9594)     S(9646)     S(9752)     S(10056)
                     S(10057)""",
          reactions='all',
          transport='Mix',
          initial_state=state(temperature=300.0, pressure=OneAtm))

#-------------------------------------------------------------------------------
# Element data
#-------------------------------------------------------------------------------

element(symbol='Ci', atomic_mass=13.003)
element(symbol='D', atomic_mass=2.014)
element(symbol='Oi', atomic_mass=17.999)
element(symbol='T', atomic_mass=3.016)
element(symbol='X', atomic_mass=195.083)
#-------------------------------------------------------------------------------
# Species data
#-------------------------------------------------------------------------------

species(name='N2',
        atoms='N:2',
        thermo=(NASA([200.00, 1000.00],
                     [ 3.53101000E+00, -1.23661000E-04, -5.02999000E-07,
                       2.43531000E-09, -1.40881000E-12, -1.04698000E+03,
                       2.96747000E+00]),
                NASA([1000.00, 6000.00],
                     [ 2.95258000E+00,  1.39690000E-03, -4.92632000E-07,
                       7.86010000E-11, -4.60755000E-15, -9.23949000E+02,
                       5.87189000E+00])),
        transport=gas_transport(geom='linear',
                                diam=3.621,
                                well_depth=97.53,
                                polar=1.76,
                                rot_relax=4.0))

species(name='Ne',
        atoms='Ne:1',
        thermo=(NASA([200.00, 1000.00],
                     [ 2.50000000E+00,  0.00000000E+00,  0.00000000E+00,
                       0.00000000E+00,  0.00000000E+00, -7.45375000E+02,
                       3.35532000E+00]),
                NASA([1000.00, 6000.00],
                     [ 2.50000000E+00,  0.00000000E+00,  0.00000000E+00,
                       0.00000000E+00,  0.00000000E+00, -7.45375000E+02,
                       3.35532000E+00])),
        transport=gas_transport(geom='atom',
                                diam=3.758,
                                well_depth=148.6))

species(name='C3H2F4(1)',
        atoms='C:3 F:4 H:2',
        thermo=(NASA([200.00, 1000.00],
                     [ 1.00153000E+00,  4.98008000E-02, -4.61878000E-05,
                       1.64792000E-08, -3.13156000E-13, -9.99487000E+04,
                       2.07747000E+01]),
                NASA([1000.00, 6000.00],
                     [ 1.43110000E+01,  9.44785000E-03, -3.52268000E-06,
                       5.79392000E-10, -3.50621000E-14, -1.03384000E+05,
                      -4.69130000E+01])),
        transport=gas_transport(geom='nonlinear',
                                diam=4.9,
                                well_depth=371.0))

species(name='OH(2)',
        atoms='H:1 O:1',
        thermo=(NASA([100.00, 1145.76],
                     [ 3.51456839E+00,  2.92734385E-05, -5.32150627E-07,
                       1.01947524E-09, -3.85939419E-13,  3.41425418E+03,
                       2.10434757E+00]),
                NASA([1145.76, 5000.00],
                     [ 3.07193725E+00,  6.04019830E-04, -1.39805878E-08,
                      -2.13440825E-11,  2.48061376E-15,  3.57938792E+03,
                       4.57801466E+00])),
        transport=gas_transport(geom='linear',
                                diam=2.75,
                                well_depth=80.0))

species(name='O2(3)',
        atoms='O:2',
        thermo=(NASA([100.00, 1074.56],
                     [ 3.53732180E+00, -1.21570917E-03,  5.31617782E-06,
                      -4.89443369E-09,  1.45845021E-12, -1.03858846E+03,
                       4.68368410E+00]),
                NASA([1074.56, 5000.00],
                     [ 3.15382431E+00,  1.67803791E-03, -7.69970964E-07,
                       1.51274701E-10, -1.08781789E-14, -1.04081881E+03,
                       6.16753849E+00])),
        transport=gas_transport(geom='linear',
                                diam=3.458,
                                well_depth=107.4,
                                polar=1.6,
                                rot_relax=3.8))

species(name='H2O(4)',
        atoms='H:2 O:1',
        thermo=(NASA([100.00, 1130.24],
                     [ 4.05763586E+00, -7.87936112E-04,  2.90877576E-06,
                      -1.47518961E-09,  2.12843333E-13, -3.02815866E+04,
                      -3.11364142E-01]),
                NASA([1130.24, 5000.00],
                     [ 2.84325034E+00,  2.75108564E-03, -7.81031596E-07,
                       1.07243665E-10, -5.79392453E-15, -2.99586127E+04,
                       5.91042055E+00])),
        transport=gas_transport(geom='nonlinear',
                                diam=2.605,
                                well_depth=572.402,
                                dipole=1.844,
                                rot_relax=4.0))

species(name='H(5)',
        atoms='H:1',
        thermo=(NASA([100.00, 3959.16],
                     [ 2.50000000E+00,  1.49297701E-14, -2.05327212E-17,
                       9.23927165E-21, -1.28063600E-24,  2.54742178E+04,
                      -4.44972896E-01]),
                NASA([3959.16, 5000.00],
                     [ 2.49999988E+00,  1.19009278E-10, -4.23987408E-14,
                       6.68965199E-18, -3.94352207E-22,  2.54742179E+04,
                      -4.44972115E-01])),
        transport=gas_transport(geom='atom',
                                diam=2.05,
                                well_depth=145.0))

species(name='O(6)',
        atoms='O:1',
        thermo=(NASA([100.00, 3959.16],
                     [ 2.50000000E+00,  1.49297701E-14, -2.05327212E-17,
                       9.23927165E-21, -1.28063600E-24,  2.92302441E+04,
                       5.12616427E+00]),
                NASA([3959.16, 5000.00],
                     [ 2.49999988E+00,  1.19009278E-10, -4.23987408E-14,
                       6.68965199E-18, -3.94352207E-22,  2.92302442E+04,
                       5.12616505E+00])),
        transport=gas_transport(geom='atom',
                                diam=2.75,
                                well_depth=80.0))

species(name='H2(7)',
        atoms='H:2',
        thermo=(NASA([100.00, 1959.07],
                     [ 3.43536386E+00,  2.12712593E-04, -2.78630123E-07,
                       3.40271151E-10, -7.76041865E-14, -1.03135983E+03,
                      -3.90841633E+00]),
                NASA([1959.07, 5000.00],
                     [ 2.78819279E+00,  5.87605915E-04,  1.59026815E-07,
                      -5.52771937E-11,  4.34334972E-15, -5.96160176E+02,
                       1.12572842E-01])),
        transport=gas_transport(geom='linear',
                                diam=2.92,
                                well_depth=38.0,
                                polar=0.79,
                                rot_relax=280.0))

species(name='CO2(8)',
        atoms='C:1 O:2',
        thermo=(NASA([200.00, 1000.00],
                     [ 2.35677000E+00,  8.98460000E-03, -7.12356000E-06,
                       2.45919000E-09, -1.43700000E-13, -4.83720000E+04,
                       9.90105000E+00]),
                NASA([1000.00, 3500.00],
                     [ 3.85746000E+00,  4.41437000E-03, -2.21481000E-06,
                       5.23490000E-10, -4.72084000E-14, -4.87592000E+04,
                       2.27164000E+00])),
        transport=gas_transport(geom='linear',
                                diam=3.763,
                                well_depth=244.001,
                                polar=2.65,
                                rot_relax=2.1))

species(name='HO2(9)',
        atoms='H:1 O:2',
        thermo=(NASA([200.00, 1000.00],
                     [ 4.30180000E+00, -4.74912000E-03,  2.11583000E-05,
                      -2.42764000E-08,  9.29225000E-12,  2.94808000E+02,
                       3.71666000E+00]),
                NASA([1000.00, 3500.00],
                     [ 4.01721000E+00,  2.23982000E-03, -6.33658000E-07,
                       1.14246000E-10, -1.07909000E-14,  1.11857000E+02,
                       3.78510000E+00])),
        transport=gas_transport(geom='nonlinear',
                                diam=3.458,
                                well_depth=107.4,
                                rot_relax=1.0))

species(name='H2O2(10)',
        atoms='H:2 O:2',
        thermo=(NASA([200.00, 1000.00],
                     [ 4.27611000E+00, -5.42822000E-04,  1.67336000E-05,
                      -2.15771000E-08,  8.62454000E-12, -1.77026000E+04,
                       3.43505000E+00]),
                NASA([1000.00, 3500.00],
                     [ 4.16500000E+00,  4.90832000E-03, -1.90139000E-06,
                       3.71186000E-10, -2.87908000E-14, -1.78618000E+04,
                       2.91616000E+00])),
        transport=gas_transport(geom='nonlinear',
                                diam=3.458,
                                well_depth=107.4,
                                rot_relax=3.8))

species(name='CO(11)',
        atoms='C:1 O:1',
        thermo=(NASA([100.00, 1571.64],
                     [ 3.56837966E+00, -8.52122508E-04,  2.48916982E-06,
                      -1.56330293E-09,  3.13593093E-13, -1.42842549E+04,
                       3.57912300E+00]),
                NASA([1571.64, 5000.00],
                     [ 2.91307498E+00,  1.64656661E-03, -6.88609141E-07,
                       1.21036145E-10, -7.84008723E-15, -1.41808889E+04,
                       6.71040926E+00])),
        transport=gas_transport(geom='linear',
                                diam=3.65,
                                well_depth=98.1,
                                polar=1.95,
                                rot_relax=1.8))

species(name='HCO(12)',
        atoms='C:1 H:1 O:1',
        thermo=(NASA([200.00, 1000.00],
                     [ 4.22119000E+00, -3.24393000E-03,  1.37799000E-05,
                      -1.33144000E-08,  4.33769000E-12,  3.83956000E+03,
                       3.39437000E+00]),
                NASA([1000.00, 3500.00],
                     [ 2.77217000E+00,  4.95696000E-03, -2.48446000E-06,
                       5.89162000E-10, -5.33509000E-14,  4.01192000E+03,
                       9.79834000E+00])),
        transport=gas_transport(geom='nonlinear',
                                diam=3.59,
                                well_depth=498.002))

species(name='CH2O(13)',
        atoms='C:1 H:2 O:1',
        thermo=(NASA([200.00, 1000.00],
                     [ 4.79372000E+00, -9.90833000E-03,  3.73220000E-05,
                      -3.79285000E-08,  1.31773000E-11, -1.43090000E+04,
                       6.02813000E-01]),
                NASA([1000.00, 3500.00],
                     [ 1.76069000E+00,  9.20000000E-03, -4.42259000E-06,
                       1.00641000E-09, -8.83856000E-14, -1.39958000E+04,
                       1.36563000E+01])),
        transport=gas_transport(geom='nonlinear',
                                diam=3.59,
                                well_depth=498.002,
                                rot_relax=2.0))

species(name='C(14)',
        atoms='C:1',
        thermo=(NASA([100.00, 3959.16],
                     [ 2.50000000E+00,  1.49297701E-14, -2.05327212E-17,
                       9.23927165E-21, -1.28063600E-24,  1.00098571E+05,
                       2.56125720E+00]),
                NASA([3959.16, 5000.00],
                     [ 2.49999988E+00,  1.19009278E-10, -4.23987408E-14,
                       6.68965199E-18, -3.94352207E-22,  1.00098571E+05,
                       2.56125799E+00])),
        transport=gas_transport(geom='atom',
                                diam=3.298,
                                well_depth=71.4))

species(name='CH(15)',
        atoms='C:1 H:1',
        thermo=(NASA([200.00, 1000.00],
                     [ 3.48982000E+00,  3.23836000E-04, -1.68899000E-06,
                       3.16217000E-09, -1.40609000E-12,  7.07973000E+04,
                       2.08401000E+00]),
                NASA([1000.00, 3500.00],
                     [ 2.87846000E+00,  9.70914000E-04,  1.44446000E-07,
                      -1.30688000E-10,  1.76079000E-14,  7.10124000E+04,
                       5.48498000E+00])),
        transport=gas_transport(geom='linear',
                                diam=2.75,
                                well_depth=80.0))

species(name='CH2(16)',
        atoms='C:1 H:2',
        thermo=(NASA([100.00, 1104.57],
                     [ 4.01192395E+00, -1.54979436E-04,  3.26298023E-06,
                      -2.40422025E-09,  5.69497431E-13,  4.58676802E+04,
                       5.33200236E-01]),
                NASA([1104.57, 5000.00],
                     [ 3.14983422E+00,  2.96674194E-03, -9.76055446E-07,
                       1.54115181E-10, -9.50337275E-15,  4.60581389E+04,
                       4.77807473E+00])),
        transport=gas_transport(geom='nonlinear',
                                diam=3.8,
                                well_depth=144.001))

species(name='HCCO(17)',
        atoms='C:2 H:1 O:1',
        thermo=(NASA([298.00, 1000.00],
                     [ 2.25172000E+00,  1.76550000E-02, -2.37291000E-05,
                       1.72758000E-08, -5.06648000E-12,  2.00594000E+04,
                       1.24904000E+01]),
                NASA([1000.00, 4000.00],
                     [ 5.62821000E+00,  4.08534000E-03, -1.59345000E-06,
                       2.86261000E-10, -1.94078000E-14,  1.93272000E+04,
                      -3.93026000E+00])),
        transport=gas_transport(geom='nonlinear',
                                diam=2.5,
                                well_depth=150.001,
                                rot_relax=1.0))

species(name='CH3(18)',
        atoms='C:1 H:3',
        thermo=(NASA([200.00, 1000.00],
                     [ 3.67359000E+00,  2.01095000E-03,  5.73022000E-06,
                      -6.87117000E-09,  2.54386000E-12,  1.64450000E+04,
                       1.60456000E+00]),
                NASA([1000.00, 3500.00],
                     [ 2.28572000E+00,  7.23990000E-03, -2.98714000E-06,
                       5.95685000E-10, -4.67154000E-14,  1.67756000E+04,
                       8.48007000E+00])),
        transport=gas_transport(geom='nonlinear',
                                diam=3.8,
                                well_depth=144.001))

species(name='C2H(19)',
        atoms='C:2 H:1',
        thermo=(NASA([200.00, 1000.00],
                     [ 2.88966000E+00,  1.34100000E-02, -2.84770000E-05,
                       2.94791000E-08, -1.09332000E-11,  6.68394000E+04,
                       6.22296000E+00]),
                NASA([1000.00, 3500.00],
                     [ 3.16781000E+00,  4.75222000E-03, -1.83787000E-06,
                       3.04190000E-10, -1.77233000E-14,  6.71211000E+04,
                       6.63589000E+00])),
        transport=gas_transport(geom='linear',
                                diam=4.1,
                                well_depth=209.001,
                                rot_relax=2.5))

species(name='CH2CO(20)',
        atoms='C:2 H:2 O:1',
        thermo=(NASA([200.00, 1000.00],
                     [ 2.13584000E+00,  1.81189000E-02, -1.73947000E-05,
                       9.34398000E-09, -2.01458000E-12, -7.04292000E+03,
                       1.22156000E+01]),
                NASA([1000.00, 3500.00],
                     [ 4.51130000E+00,  9.00360000E-03, -4.16940000E-06,
                       9.23346000E-10, -7.94838000E-14, -7.55105000E+03,
                       6.32247000E-01])),
        transport=gas_transport(geom='nonlinear',
                                diam=3.97,
                                well_depth=436.001,
                                rot_relax=2.0))

species(name='C2H2(21)',
        atoms='C:2 H:2',
        thermo=(NASA([200.00, 1000.00],
                     [ 8.08681000E-01,  2.33616000E-02, -3.55172000E-05,
                       2.80152000E-08, -8.50073000E-12,  2.64290000E+04,
                       1.39397000E+01]),
                NASA([1000.00, 3500.00],
                     [ 4.14757000E+00,  5.96167000E-03, -2.37295000E-06,
                       4.67412000E-10, -3.61235000E-14,  2.59360000E+04,
                      -1.23028000E+00])),
        transport=gas_transport(geom='linear',
                                diam=4.1,
                                well_depth=209.001,
                                rot_relax=2.5))

species(name='CH2*(22)',
        atoms='C:1 H:2',
        thermo=(NASA([100.00, 1442.35],
                     [ 4.10264409E+00, -1.44068756E-03,  5.45069955E-06,
                      -3.58003062E-09,  7.56196014E-13,  5.04005785E+04,
                      -4.11767085E-01]),
                NASA([1442.35, 5000.00],
                     [ 2.62646565E+00,  3.94764160E-03, -1.49924777E-06,
                       2.54540551E-10, -1.62956925E-14,  5.06917574E+04,
                       6.78383918E+00])),
        transport=gas_transport(geom='nonlinear',
                                diam=3.8,
                                well_depth=144.001))

species(name='AR(23)',
        atoms='Ar:1',
        thermo=(NASA([200.00, 1000.00],
                     [ 2.50000000E+00,  0.00000000E+00,  0.00000000E+00,
                       0.00000000E+00,  0.00000000E+00, -7.45375000E+02,
                       4.37967000E+00]),
                NASA([1000.00, 6000.00],
                     [ 2.50000000E+00,  0.00000000E+00,  0.00000000E+00,
                       0.00000000E+00,  0.00000000E+00, -7.45375000E+02,
                       4.37967000E+00])),
        transport=gas_transport(geom='atom',
                                diam=3.33,
                                well_depth=136.501))

species(name='CH3OH(24)',
        atoms='C:1 H:4 O:1',
        thermo=(NASA([200.00, 1000.00],
                     [ 5.71540000E+00, -1.52309000E-02,  6.52441000E-05,
                      -7.10807000E-08,  2.61353000E-11, -2.56428000E+04,
                      -1.50410000E+00]),
                NASA([1000.00, 3500.00],
                     [ 1.78971000E+00,  1.40938000E-02, -6.36501000E-06,
                       1.38171000E-09, -1.17060000E-13, -2.53749000E+04,
                       1.45024000E+01])),
        transport=gas_transport(geom='nonlinear',
                                diam=3.626,
                                well_depth=481.802,
                                rot_relax=1.0))

species(name='CH2OH(25)',
        atoms='C:1 H:3 O:1',
        thermo=(NASA([200.00, 1000.00],
                     [ 3.86389000E+00,  5.59672000E-03,  5.93272000E-06,
                      -1.04532000E-08,  4.36967000E-12, -3.19391000E+03,
                       5.47302000E+00]),
                NASA([1000.00, 3500.00],
                     [ 3.69267000E+00,  8.64577000E-03, -3.75101000E-06,
                       7.87235000E-10, -6.48554000E-14, -3.24251000E+03,
                       5.81043000E+00])),
        transport=gas_transport(geom='nonlinear',
                                diam=3.69,
                                well_depth=417.002,
                                dipole=1.7,
                                rot_relax=2.0))

species(name='CH3O(26)',
        atoms='C:1 H:3 O:1',
        thermo=(NASA([298.00, 1000.00],
                     [ 2.10620000E+00,  7.21660000E-03,  5.33847000E-06,
                      -7.37764000E-09,  2.07561000E-12,  9.78601000E+02,
                       1.31522000E+01]),
                NASA([1000.00, 3000.00],
                     [ 3.77080000E+00,  7.87150000E-03, -2.65638000E-06,
                       3.94443000E-10, -2.11262000E-14,  1.27833000E+02,
                       2.92957000E+00])),
        transport=gas_transport(geom='nonlinear',
                                diam=3.69,
                                well_depth=417.002,
                                dipole=1.7,
                                rot_relax=2.0))

species(name='CH4(27)',
        atoms='C:1 H:4',
        thermo=(NASA([100.00, 1084.14],
                     [ 4.20540357E+00, -5.35543930E-03,  2.51118744E-05,
                      -2.13757274E-08,  5.97501614E-12, -1.01619428E+04,
                      -9.21237248E-01]),
                NASA([1084.14, 5000.00],
                     [ 9.08332935E-01,  1.14539750E-02, -4.57167583E-06,
                       8.29177165E-10, -5.66303015E-14, -9.72000388E+03,
                       1.39927137E+01])),
        transport=gas_transport(geom='nonlinear',
                                diam=3.746,
                                well_depth=141.4,
                                polar=2.6,
                                rot_relax=13.0))

species(name='C2H3(28)',
        atoms='C:2 H:3',
        thermo=(NASA([200.00, 1000.00],
                     [ 3.21247000E+00,  1.51479000E-03,  2.59209000E-05,
                      -3.57658000E-08,  1.47151000E-11,  3.48598000E+04,
                       8.51054000E+00]),
                NASA([1000.00, 3500.00],
                     [ 3.01672000E+00,  1.03302000E-02, -4.68082000E-06,
                       1.01763000E-09, -8.62607000E-14,  3.46129000E+04,
                       7.78732000E+00])),
        transport=gas_transport(geom='nonlinear',
                                diam=4.1,
                                well_depth=209.001,
                                rot_relax=1.0))

species(name='C2H4(29)',
        atoms='C:2 H:4',
        thermo=(NASA([200.00, 1000.00],
                     [ 3.95920000E+00, -7.57052000E-03,  5.70990000E-05,
                      -6.91589000E-08,  2.69884000E-11,  5.08978000E+03,
                       4.09733000E+00]),
                NASA([1000.00, 3500.00],
                     [ 2.03611000E+00,  1.46454000E-02, -6.71078000E-06,
                       1.47223000E-09, -1.25706000E-13,  4.93989000E+03,
                       1.03054000E+01])),
        transport=gas_transport(geom='nonlinear',
                                diam=3.971,
                                well_depth=280.801,
                                rot_relax=1.5))

species(name='C2H6(30)',
        atoms='C:2 H:6',
        thermo=(NASA([200.00, 1000.00],
                     [ 4.29142000E+00, -5.50154000E-03,  5.99438000E-05,
                      -7.08466000E-08,  2.68686000E-11, -1.15222000E+04,
                       2.66682000E+00]),
                NASA([1000.00, 3500.00],
                     [ 1.07188000E+00,  2.16853000E-02, -1.00256000E-05,
                       2.21412000E-09, -1.90003000E-13, -1.14264000E+04,
                       1.51156000E+01])),
        transport=gas_transport(geom='nonlinear',
                                diam=4.302,
                                well_depth=252.301,
                                rot_relax=1.5))

species(name='C2H5(31)',
        atoms='C:2 H:5',
        thermo=(NASA([200.00, 1000.00],
                     [ 4.30647000E+00, -4.18659000E-03,  4.97143000E-05,
                      -5.99127000E-08,  2.30509000E-11,  1.28416000E+04,
                       4.70721000E+00]),
                NASA([1000.00, 3500.00],
                     [ 1.95466000E+00,  1.73973000E-02, -7.98207000E-06,
                       1.75218000E-09, -1.49642000E-13,  1.28575000E+04,
                       1.34624000E+01])),
        transport=gas_transport(geom='nonlinear',
                                diam=4.302,
                                well_depth=252.301,
                                rot_relax=1.5))

species(name='C3H3(32)',
        atoms='C:3 H:3',
        thermo=(NASA([100.00, 949.37],
                     [ 3.09018522E+00,  1.73588513E-02, -8.30774840E-06,
                      -2.47852160E-09,  2.58709582E-12,  4.07558456E+04,
                       8.11427517E+00]),
                NASA([949.37, 5000.00],
                     [ 6.99886036E+00,  7.24418258E-03, -2.36572801E-06,
                       3.98593677E-10, -2.69785583E-14,  3.97273557E+04,
                      -1.20477693E+01])),
        transport=gas_transport(geom='nonlinear',
                                diam=4.76,
                                well_depth=252.0,
                                rot_relax=1.0))

species(name='C2O(33)',
        atoms='C:2 O:1',
        thermo=(NASA([200.00, 1000.00],
                     [ 2.86278000E+00,  1.19701000E-02, -1.80851000E-05,
                       1.52778000E-08, -5.20063000E-12,  4.43126000E+04,
                       8.89759000E+00]),
                NASA([1000.00, 6000.00],
                     [ 5.42468000E+00,  1.85394000E-03, -5.17933000E-07,
                       6.77646000E-11, -3.53315000E-15,  4.37161000E+04,
                      -3.69608000E+00])),
        transport=gas_transport(geom='linear',
                                diam=3.828,
                                well_depth=232.401,
                                rot_relax=1.0))

species(name='H2CC(34)',
        atoms='C:2 H:2',
        thermo=(NASA([200.00, 1000.00],
                     [ 3.28155000E+00,  6.97643000E-03, -2.38528000E-06,
                      -1.21078000E-09,  9.82042000E-13,  4.83192000E+04,
                       5.92036000E+00]),
                NASA([1000.00, 6000.00],
                     [ 4.27807000E+00,  4.75623000E-03, -1.63007000E-06,
                       2.54623000E-10, -1.48860000E-14,  4.80140000E+04,
                       6.39979000E-01])),
        transport=gas_transport(geom='nonlinear',
                                diam=4.1,
                                well_depth=209.0,
                                rot_relax=2.5))
